4wnv_ligand_269
     RDKit          2D

 24 28  0  0  0  0  0  0  0  0999 V2000
    0.0000   -0.0000   -0.0000 N   0  0  0  0  0  0  0  0  0  0  0  0
   -1.2987   -0.7506   -0.0000 C   0  0  0  0  0  0  0  0  0  0  0  0
    1.2987   -0.7149   -0.0000 C   0  0  0  0  0  0  0  0  0  0  0  0
   -2.6211   -0.0000   -0.0000 C   0  0  0  0  0  0  0  0  0  0  0  0
   -1.2987   -2.2399   -0.0000 C   0  0  0  0  0  0  0  0  0  0  0  0
    1.3106   -2.2161   -0.0000 C   0  0  0  0  0  0  0  0  0  0  0  0
    2.5735    0.0715   -0.0000 C   0  0  0  0  0  0  0  0  0  0  0  0
   -3.0858    1.4416   -0.0000 N   0  0  0  0  0  0  0  0  0  0  0  0
   -3.8483   -0.8697   -0.0000 C   0  0  0  0  0  0  0  0  0  0  0  0
    0.0000   -2.9667   -0.0000 C   0  0  0  0  0  0  0  0  0  0  0  0
   -4.5989    1.4535   -0.0000 N   0  0  0  0  0  0  0  0  0  0  0  0
   -3.8602   -2.3590   -0.0000 C   0  0  0  0  0  0  0  0  0  0  0  0
   -5.0755    0.0238   -0.0000 C   0  0  0  0  0  0  0  0  0  0  0  0
   -5.8261    2.3471   -0.0000 C   0  0  0  0  0  0  0  0  0  0  0  0
   -2.5854   -3.0977   -0.0000 C   0  0  0  0  0  0  0  0  0  0  0  0
   -5.1827   -3.0858   -0.0000 C   0  0  0  0  0  0  0  0  0  0  0  0
   -6.5886    0.0357   -0.0000 C   0  0  0  0  0  0  0  0  0  0  0  0
   -7.0533    1.4774   -0.0000 C   0  0  0  0  0  0  0  0  0  0  0  0
   -2.5973   -4.5870   -0.0000 C   0  0  0  0  0  0  0  0  0  0  0  0
   -5.1946   -4.5751   -0.0000 C   0  0  0  0  0  0  0  0  0  0  0  0
   -1.5012   -5.5521   -0.0000 N   0  0  0  0  0  0  0  0  0  0  0  0
   -3.9079   -5.3257   -0.0000 C   0  0  0  0  0  0  0  0  0  0  0  0
   -2.1327   -6.9341   -0.0000 C   0  0  0  0  0  0  0  0  0  0  0  0
   -3.6219   -6.7792   -0.0000 N   0  0  0  0  0  0  0  0  0  0  0  0
  1  2  2  0
  1  3  1  0
  2  4  1  0
  2  5  1  0
  3  6  2  0
  3  7  1  0
  4  8  2  0
  4  9  1  0
  5 10  2  0
  8 11  1  0
  9 12  1  0
  9 13  2  0
 11 14  1  0
 12 15  2  0
 12 16  1  0
 13 17  1  0
 14 18  1  0
 15 19  1  0
 16 20  2  0
 19 21  1  0
 19 22  2  0
 21 23  2  0
 22 24  1  0
  6 10  1  0
 11 13  1  0
 17 18  1  0
 20 22  1  0
 23 24  1  0
M  END
>  <MolRegNo>  (1) 
341041

>  <m>  (1) 
=

>  <Value>  (1) 
27000

>  <Unit>  (1) 
nM

>  <Type>  (1) 
IC50

>  <pValue>  (1) 
4.57

>  <Ligand Efficiency>  (1) 
0

>  <Binding Efficiency>  (1) 
0

>  <Surface Efficiency>  (1) 
0

>  <Assay Index>  (1) 
258525

>  <Assay Category>  (1) 


>  <Assay Organism>  (1) 
Homo sapiens

>  <Target ID>  (1) 
11365

>  <Target Name>  (1) 
Cytochrome P450 2D6

>  <Target Organism>  (1) 
Homo sapiens

>  <Target Description>  (1) 
Target is a single protein chain

>  <Sequence Accession>  (1) 
P10635

>  <Reference>  (1) 
J Med Chem 49 (6), 2138-2142 (2006)

>  <Pubmed ID>  (1) 
16539403

>  <DOI>  (1) 
10.1021/jm058209g

$$$$
