4wnv_ligand_1004
     RDKit          2D

 22 24  0  0  0  0  0  0  0  0999 V2000
    0.0000   -0.0000   -0.0000 S   0  0  0  0  0  0  0  0  0  0  0  0
   -1.4533   -0.4527   -0.0000 C   0  0  0  0  0  0  0  0  0  0  0  0
    0.8815   -1.2031   -0.0000 C   0  0  0  0  0  0  0  0  0  0  0  0
   -1.4652   -1.9536   -0.0000 C   0  0  0  0  0  0  0  0  0  0  0  0
   -2.7637    0.2978   -0.0000 C   0  0  0  0  0  0  0  0  0  0  0  0
   -0.0119   -2.4182   -0.0000 C   0  0  0  0  0  0  0  0  0  0  0  0
    2.3706   -1.1793   -0.0000 C   0  0  0  0  0  0  0  0  0  0  0  0
   -2.7756   -2.6922   -0.0000 C   0  0  0  0  0  0  0  0  0  0  0  0
   -4.0740   -0.4408   -0.0000 C   0  0  0  0  0  0  0  0  0  0  0  0
    0.4527   -3.8239   -0.0000 C   0  0  0  0  0  0  0  0  0  0  0  0
    3.1091   -2.4659   -0.0000 C   0  0  0  0  0  0  0  0  0  0  0  0
   -4.0859   -1.9298   -0.0000 C   0  0  0  0  0  0  0  0  0  0  0  0
   -0.8577   -4.5624   -0.0000 C   0  0  0  0  0  0  0  0  0  0  0  0
    1.9060   -4.1098   -0.0000 C   0  0  0  0  0  0  0  0  0  0  0  0
    4.5982   -2.4420   -0.0000 N   0  0  0  0  0  0  0  0  0  0  0  0
   -0.8577   -6.0396   -0.0000 N   0  0  0  0  0  0  0  0  0  0  0  0
   -2.1680   -3.8000   -0.0000 C   0  0  0  0  0  0  0  0  0  0  0  0
    5.3367   -3.7286   -0.0000 C   0  0  0  0  0  0  0  0  0  0  0  0
    5.3248   -1.1317   -0.0000 C   0  0  0  0  0  0  0  0  0  0  0  0
   -2.1561   -6.7900   -0.0000 C   0  0  0  0  0  0  0  0  0  0  0  0
   -3.4784   -4.5386   -0.0000 C   0  0  0  0  0  0  0  0  0  0  0  0
   -3.4784   -6.0396   -0.0000 C   0  0  0  0  0  0  0  0  0  0  0  0
  1  2  1  0
  1  3  1  0
  2  4  2  0
  2  5  1  0
  3  6  2  0
  3  7  1  0
  4  8  1  0
  5  9  2  0
  6 10  1  0
  7 11  1  0
  8 12  2  0
 10 13  1  0
 10 14  1  0
 11 15  1  0
 13 16  2  0
 13 17  1  0
 15 18  1  0
 15 19  1  0
 16 20  1  0
 17 21  2  0
 20 22  2  0
  4  6  1  0
  9 12  1  0
 21 22  1  0
M  END
>  <MolRegNo>  (1) 
619832

>  <m>  (1) 
=

>  <Value>  (1) 
6900

>  <Unit>  (1) 
nM

>  <Type>  (1) 
IC50

>  <pValue>  (1) 
5.16

>  <Ligand Efficiency>  (1) 
0

>  <Binding Efficiency>  (1) 
0

>  <Surface Efficiency>  (1) 
0

>  <Assay Index>  (1) 
469728

>  <Assay Category>  (1) 


>  <Assay Organism>  (1) 


>  <Target ID>  (1) 
11365

>  <Target Name>  (1) 
Cytochrome P450 2D6

>  <Target Organism>  (1) 
Homo sapiens

>  <Target Description>  (1) 
Target is a single protein chain

>  <Sequence Accession>  (1) 
P10635

>  <Reference>  (1) 
Bioorg Med Chem Lett 20 (7), 2316-2320 (2010)

>  <Pubmed ID>  (1) 
20188547

>  <DOI>  (1) 
10.1016/j.bmcl.2010.01.134

$$$$
