4wnv_ligand_30
     RDKit          2D

 33 36  0  0  1  0  0  0  0  0999 V2000
    0.0000   -0.0000   -0.0000 Cl  0  0  0  0  0  0  0  0  0  0  0  0
  -17.4516    2.1815   -0.0000 O   0  0  0  0  0  0  0  0  0  0  0  0
  -18.5253    1.5850   -0.0000 C   0  0  0  0  0  0  0  0  0  0  0  0
  -18.5423    0.0852   -0.0000 N   0  0  0  0  0  0  0  0  0  0  0  0
  -19.8546    2.3689   -0.0000 C   0  0  0  0  0  0  0  0  0  0  0  0
  -17.2471   -0.6647   -0.0000 C   0  0  0  0  0  0  0  0  0  0  0  0
  -20.0080    3.8687   -0.0000 N   0  0  0  0  0  0  0  0  0  0  0  0
  -21.2521    1.7554   -0.0000 C   0  0  0  0  0  0  0  0  0  0  0  0
  -17.2641   -2.1644   -0.0000 C   0  0  0  0  0  0  0  0  0  0  0  0
  -15.9519    0.1193   -0.0000 C   0  0  0  0  0  0  0  0  0  0  0  0
  -21.5077    4.2266   -0.0000 C   0  0  0  0  0  0  0  0  0  0  0  0
  -22.2747    2.8972   -0.0000 C   0  0  0  0  0  0  0  0  0  0  0  0
  -15.9689   -2.9143   -0.0000 C   0  0  0  0  0  0  0  0  0  0  0  0
  -14.6566   -0.6306   -0.0000 C   0  0  0  0  0  0  0  0  0  0  0  0
  -22.2576    5.5729   -0.0000 C   0  0  0  0  0  0  0  0  0  0  0  0
  -23.8255    2.9143   -0.0000 C   0  0  0  0  0  0  0  0  0  0  0  0
  -14.6737   -2.1303   -0.0000 C   0  0  0  0  0  0  0  0  0  0  0  0
  -23.8255    5.5900   -0.0000 C   0  0  0  0  0  0  0  0  0  0  0  0
  -24.5924    4.2777   -0.0000 C   0  0  0  0  0  0  0  0  0  0  0  0
  -13.3614   -2.8802   -0.0000 C   0  0  0  0  0  0  0  0  0  0  0  0
  -12.0661   -2.0962   -0.0000 C   0  0  0  0  0  0  0  0  0  0  0  0
  -10.7709   -2.8461   -0.0000 N   0  0  0  0  0  0  0  0  0  0  0  0
   -9.4586   -2.0622   -0.0000 C   0  0  0  0  0  0  0  0  0  0  0  0
  -10.7880   -4.3459   -0.0000 C   0  0  0  0  0  0  0  0  0  0  0  0
   -8.1634   -2.8120   -0.0000 C   0  0  0  0  0  0  0  0  0  0  0  0
   -9.4757   -5.0957   -0.0000 C   0  0  0  0  0  0  0  0  0  0  0  0
   -8.1804   -4.3118   -0.0000 C   0  0  0  0  0  0  0  0  0  0  0  0
   -6.8682   -2.0281   -0.0000 C   0  0  0  0  0  0  0  0  0  0  0  0
   -6.8852   -5.0616   -0.0000 C   0  0  0  0  0  0  0  0  0  0  0  0
   -5.5729   -2.7779   -0.0000 C   0  0  0  0  0  0  0  0  0  0  0  0
   -5.5900   -4.2777   -0.0000 C   0  0  0  0  0  0  0  0  0  0  0  0
   -4.2777   -1.9940   -0.0000 C   0  0  0  0  0  0  0  0  0  0  0  0
   -3.2381   -1.3634   -0.0000 N   0  0  0  0  0  0  0  0  0  0  0  0
  2  3  2  0
  3  4  1  0
  3  5  1  0
  6  4  1  6
  5  7  1  0
  5  8  2  0
  6  9  1  0
  6 10  1  0
  7 11  1  0
  8 12  1  0
  9 13  1  0
 10 14  1  0
 11 15  2  0
 12 16  2  0
 13 17  1  0
 15 18  1  0
 16 19  1  0
 17 20  1  1
 20 21  1  0
 21 22  1  0
 22 23  1  0
 22 24  1  0
 23 25  1  0
 24 26  1  0
 25 27  2  0
 25 28  1  0
 27 29  1  0
 28 30  2  0
 29 31  2  0
 30 32  1  0
 32 33  3  0
 11 12  1  0
 14 17  1  0
 18 19  2  0
 26 27  1  0
 30 31  1  0
M  END
>  <MolRegNo>  (1) 
1385598

>  <m>  (1) 
=

>  <Value>  (1) 
800

>  <Unit>  (1) 
nM

>  <Type>  (1) 
IC50

>  <pValue>  (1) 
6.1

>  <Ligand Efficiency>  (1) 
0

>  <Binding Efficiency>  (1) 
0

>  <Surface Efficiency>  (1) 
0

>  <Assay Index>  (1) 
51653

>  <Assay Category>  (1) 


>  <Assay Organism>  (1) 


>  <Target ID>  (1) 
11365

>  <Target Name>  (1) 
Cytochrome P450 2D6

>  <Target Organism>  (1) 
Homo sapiens

>  <Target Description>  (1) 
Target is a single protein chain

>  <Sequence Accession>  (1) 
P10635

>  <Reference>  (1) 
J Med Chem 43 (9), 1878-1885 (2000)

>  <Pubmed ID>  (1) 
10794704

>  <DOI>  (1) 
10.1021/jm000090i

$$$$
