4wnv_ligand_818
     RDKit          2D

 22 24  0  0  0  0  0  0  0  0999 V2000
    0.0000   -0.0000   -0.0000 F   0  0  0  0  0  0  0  0  0  0  0  0
    1.4519    0.3187   -0.0000 C   0  0  0  0  0  0  0  0  0  0  0  0
    2.4434   -0.7790   -0.0000 C   0  0  0  0  0  0  0  0  0  0  0  0
    1.9004    1.7588   -0.0000 C   0  0  0  0  0  0  0  0  0  0  0  0
    3.8952   -0.4603   -0.0000 C   0  0  0  0  0  0  0  0  0  0  0  0
    3.3523    2.0775   -0.0000 C   0  0  0  0  0  0  0  0  0  0  0  0
    4.3438    0.9797   -0.0000 C   0  0  0  0  0  0  0  0  0  0  0  0
    5.7956    1.2984   -0.0000 C   0  0  0  0  0  0  0  0  0  0  0  0
    6.2442    2.7385   -0.0000 C   0  0  0  0  0  0  0  0  0  0  0  0
    7.6606    3.2106   -0.0000 C   0  0  0  0  0  0  0  0  0  0  0  0
    5.3471    3.9661   -0.0000 C   0  0  0  0  0  0  0  0  0  0  0  0
    7.6488    4.7215   -0.0000 C   0  0  0  0  0  0  0  0  0  0  0  0
    8.9472    2.4670   -0.0000 C   0  0  0  0  0  0  0  0  0  0  0  0
    6.2206    5.1937   -0.0000 C   0  0  0  0  0  0  0  0  0  0  0  0
    3.8362    3.9779   -0.0000 C   0  0  0  0  0  0  0  0  0  0  0  0
    8.9354    5.4887   -0.0000 C   0  0  0  0  0  0  0  0  0  0  0  0
   10.2339    3.2342   -0.0000 C   0  0  0  0  0  0  0  0  0  0  0  0
    3.0690    5.2881   -0.0000 C   0  0  0  0  0  0  0  0  0  0  0  0
   10.2220    4.7451   -0.0000 C   0  0  0  0  0  0  0  0  0  0  0  0
    1.5581    5.2999   -0.0000 N   0  0  0  0  0  0  0  0  0  0  0  0
    0.7909    6.6101   -0.0000 C   0  0  0  0  0  0  0  0  0  0  0  0
    0.7909    4.0133   -0.0000 C   0  0  0  0  0  0  0  0  0  0  0  0
  1  2  1  0
  2  3  2  0
  2  4  1  0
  3  5  1  0
  4  6  2  0
  5  7  2  0
  7  8  1  0
  8  9  1  0
  9 10  1  0
  9 11  2  0
 10 12  2  0
 10 13  1  0
 11 14  1  0
 11 15  1  0
 12 16  1  0
 13 17  2  0
 15 18  1  0
 16 19  2  0
 18 20  1  0
 20 21  1  0
 20 22  1  0
  6  7  1  0
 12 14  1  0
 17 19  1  0
M  END
>  <MolRegNo>  (1) 
557401

>  <m>  (1) 
=

>  <Value>  (1) 
300

>  <Unit>  (1) 
nM

>  <Type>  (1) 
IC50

>  <pValue>  (1) 
6.52

>  <Ligand Efficiency>  (1) 
0

>  <Binding Efficiency>  (1) 
0

>  <Surface Efficiency>  (1) 
0

>  <Assay Index>  (1) 
428514

>  <Assay Category>  (1) 


>  <Assay Organism>  (1) 


>  <Target ID>  (1) 
11365

>  <Target Name>  (1) 
Cytochrome P450 2D6

>  <Target Organism>  (1) 
Homo sapiens

>  <Target Description>  (1) 
Target is a single protein chain

>  <Sequence Accession>  (1) 
P10635

>  <Reference>  (1) 
J Med Chem 52 (17), 5307-5310 (2009)

>  <Pubmed ID>  (1) 
19663387

>  <DOI>  (1) 
10.1021/jm900933k

$$$$
