4wnv_ligand_7
     RDKit          2D

 52 57  0  0  1  0  0  0  0  0999 V2000
    0.0000   -0.0000   -0.0000 F   0  0  0  0  0  0  0  0  0  0  0  0
    0.2434    1.5577   -0.0000 C   0  0  0  0  0  0  0  0  0  0  0  0
   -0.9492    0.8884   -0.0000 F   0  0  0  0  0  0  0  0  0  0  0  0
   -1.2291    2.1297   -0.0000 F   0  0  0  0  0  0  0  0  0  0  0  0
    1.5456    2.3244   -0.0000 C   0  0  0  0  0  0  0  0  0  0  0  0
    1.5334    3.8335   -0.0000 N   0  0  0  0  0  0  0  0  0  0  0  0
    0.2069    4.6002   -0.0000 C   0  0  0  0  0  0  0  0  0  0  0  0
   -1.0953    3.8578   -0.0000 O   0  0  0  0  0  0  0  0  0  0  0  0
    0.1947    6.1092   -0.0000 C   0  0  0  0  0  0  0  0  0  0  0  0
    1.4725    6.8759   -0.0000 N   0  0  0  0  0  0  0  0  0  0  0  0
   -1.0953    6.8759   -0.0000 C   0  0  0  0  0  0  0  0  0  0  0  0
    1.4604    8.3850   -0.0000 C   0  0  0  0  0  0  0  0  0  0  0  0
    2.7747    6.1336   -0.0000 C   0  0  0  0  0  0  0  0  0  0  0  0
   -1.1074    8.3850   -0.0000 N   0  0  0  0  0  0  0  0  0  0  0  0
    0.1582    9.1517   -0.0000 C   0  0  0  0  0  0  0  0  0  0  0  0
    4.0525    6.9003   -0.0000 C   0  0  0  0  0  0  0  0  0  0  0  0
   -2.4340    9.1517   -0.0000 C   0  0  0  0  0  0  0  0  0  0  0  0
    4.0404    8.4093   -0.0000 O   0  0  0  0  0  0  0  0  0  0  0  0
    5.3304    6.1579   -0.0000 C   0  0  0  0  0  0  0  0  0  0  0  0
   -3.7361    8.4093   -0.0000 C   0  0  0  0  0  0  0  0  0  0  0  0
    6.6082    6.9124   -0.0000 C   0  0  0  0  0  0  0  0  0  0  0  0
   -3.9065    6.9246   -0.0000 O   0  0  0  0  0  0  0  0  0  0  0  0
   -5.1113    9.0300   -0.0000 C   0  0  0  0  0  0  0  0  0  0  0  0
    7.8860    6.1701   -0.0000 C   0  0  0  0  0  0  0  0  0  0  0  0
    6.5960    8.4215   -0.0000 C   0  0  0  0  0  0  0  0  0  0  0  0
   -5.3790    6.6203   -0.0000 C   0  0  0  0  0  0  0  0  0  0  0  0
   -6.1457    7.9103   -0.0000 C   0  0  0  0  0  0  0  0  0  0  0  0
    7.8738    4.6854   -0.0000 O   0  0  0  0  0  0  0  0  0  0  0  0
    9.1638    6.9368   -0.0000 N   0  0  0  0  0  0  0  0  0  0  0  0
    5.5129    9.5046   -0.0000 C   0  0  0  0  0  0  0  0  0  0  0  0
   -5.9997    5.2695   -0.0000 C   0  0  0  0  0  0  0  0  0  0  0  0
   10.4417    6.1944   -0.0000 C   0  0  0  0  0  0  0  0  0  0  0  0
    4.0404    9.1273   -0.0000 C   0  0  0  0  0  0  0  0  0  0  0  0
    5.8902   10.9893   -0.0000 C   0  0  0  0  0  0  0  0  0  0  0  0
   -7.5087    5.1235   -0.0000 C   0  0  0  0  0  0  0  0  0  0  0  0
   -5.1235    4.0769   -0.0000 C   0  0  0  0  0  0  0  0  0  0  0  0
   10.4295    4.7097   -0.0000 C   0  0  0  0  0  0  0  0  0  0  0  0
   11.7195    6.9368   -0.0000 C   0  0  0  0  0  0  0  0  0  0  0  0
    2.9329   10.2104   -0.0000 C   0  0  0  0  0  0  0  0  0  0  0  0
    4.8071   12.0724   -0.0000 C   0  0  0  0  0  0  0  0  0  0  0  0
   -8.1172    3.7726   -0.0000 C   0  0  0  0  0  0  0  0  0  0  0  0
   -5.7320    2.7260   -0.0000 C   0  0  0  0  0  0  0  0  0  0  0  0
   11.7073    3.9552   -0.0000 C   0  0  0  0  0  0  0  0  0  0  0  0
    9.1273    3.9795   -0.0000 C   0  0  0  0  0  0  0  0  0  0  0  0
   11.7073    8.4458   -0.0000 O   0  0  0  0  0  0  0  0  0  0  0  0
   12.9973    6.1944   -0.0000 C   0  0  0  0  0  0  0  0  0  0  0  0
    3.3345   11.7195   -0.0000 C   0  0  0  0  0  0  0  0  0  0  0  0
   -7.2410    2.5678   -0.0000 N   0  0  0  0  0  0  0  0  0  0  0  0
   12.9851    4.7219   -0.0000 O   0  0  0  0  0  0  0  0  0  0  0  0
   11.6708    2.4948   -0.0000 C   0  0  0  0  0  0  0  0  0  0  0  0
    9.1152    2.5070   -0.0000 C   0  0  0  0  0  0  0  0  0  0  0  0
   10.3808    1.7768   -0.0000 C   0  0  0  0  0  0  0  0  0  0  0  0
  1  2  1  0
  2  3  1  0
  2  4  1  0
  2  5  1  0
  5  6  1  0
  6  7  1  0
  7  8  2  0
  9  7  1  6
  9 10  1  0
  9 11  1  0
 10 12  1  0
 10 13  1  0
 11 14  1  0
 12 15  1  0
 13 16  1  0
 14 17  1  0
 16 18  1  1
 16 19  1  0
 17 20  1  0
 21 19  1  1
 20 22  1  0
 20 23  2  0
 21 24  1  0
 21 25  1  0
 22 26  1  0
 23 27  1  0
 24 28  2  0
 24 29  1  0
 25 30  1  0
 26 31  1  0
 32 29  1  6
 30 33  2  0
 30 34  1  0
 31 35  2  0
 31 36  1  0
 32 37  1  0
 32 38  1  0
 33 39  1  0
 34 40  2  0
 35 41  1  0
 36 42  2  0
 37 43  2  0
 37 44  1  0
 38 45  1  6
 38 46  1  0
 39 47  2  0
 41 48  2  0
 43 49  1  0
 43 50  1  0
 44 51  2  0
 50 52  2  0
 14 15  1  0
 26 27  2  0
 40 47  1  0
 42 48  1  0
 46 49  1  0
 51 52  1  0
M  END
>  <MolRegNo>  (1) 
185868

>  <m>  (1) 
=

>  <Value>  (1) 
530

>  <Unit>  (1) 
nM

>  <Type>  (1) 
IC50

>  <pValue>  (1) 
6.28

>  <Ligand Efficiency>  (1) 
0

>  <Binding Efficiency>  (1) 
0

>  <Surface Efficiency>  (1) 
0

>  <Assay Index>  (1) 
51632

>  <Assay Category>  (1) 


>  <Assay Organism>  (1) 
Homo sapiens

>  <Target ID>  (1) 
11365

>  <Target Name>  (1) 
Cytochrome P450 2D6

>  <Target Organism>  (1) 
Homo sapiens

>  <Target Description>  (1) 
Target is a single protein chain

>  <Sequence Accession>  (1) 
P10635

>  <Reference>  (1) 
Bioorg Med Chem Lett 13 (15), 2569-2572 (2003)

>  <Pubmed ID>  (1) 
12852968

>  <DOI>  (1) 
10.1016/s0960-894x(03)00475-x

$$$$
