4wnv_ligand_346
     RDKit          2D

 33 35  0  0  0  0  0  0  0  0999 V2000
    0.0000   -0.0000   -0.0000 F   0  0  0  0  0  0  0  0  0  0  0  0
    1.2924   -0.7419   -0.0000 C   0  0  0  0  0  0  0  0  0  0  0  0
    2.5849    0.0239   -0.0000 C   0  0  0  0  0  0  0  0  0  0  0  0
    1.2805   -2.2378   -0.0000 C   0  0  0  0  0  0  0  0  0  0  0  0
    2.5729    1.5437   -0.0000 F   0  0  0  0  0  0  0  0  0  0  0  0
    3.8773   -0.7180   -0.0000 C   0  0  0  0  0  0  0  0  0  0  0  0
    2.5729   -2.9798   -0.0000 C   0  0  0  0  0  0  0  0  0  0  0  0
    3.8653   -2.2258   -0.0000 C   0  0  0  0  0  0  0  0  0  0  0  0
    2.5609   -4.4756   -0.0000 F   0  0  0  0  0  0  0  0  0  0  0  0
    5.1577   -2.9678   -0.0000 C   0  0  0  0  0  0  0  0  0  0  0  0
    6.4502   -2.2019   -0.0000 C   0  0  0  0  0  0  0  0  0  0  0  0
    5.1458   -4.4637   -0.0000 C   0  0  0  0  0  0  0  0  0  0  0  0
    6.4382   -0.6821   -0.0000 N   0  0  0  0  0  0  0  0  0  0  0  0
    7.7426   -2.9558   -0.0000 C   0  0  0  0  0  0  0  0  0  0  0  0
    6.4382   -5.2056   -0.0000 C   0  0  0  0  0  0  0  0  0  0  0  0
    7.7306   -4.4517   -0.0000 N   0  0  0  0  0  0  0  0  0  0  0  0
    9.0230   -5.1936   -0.0000 C   0  0  0  0  0  0  0  0  0  0  0  0
   10.3155   -4.4278   -0.0000 N   0  0  0  0  0  0  0  0  0  0  0  0
    8.9991   -6.6895   -0.0000 C   0  0  0  0  0  0  0  0  0  0  0  0
   11.6079   -5.1817   -0.0000 N   0  0  0  0  0  0  0  0  0  0  0  0
   10.2796   -7.4315   -0.0000 C   0  0  0  0  0  0  0  0  0  0  0  0
   11.5959   -6.6775   -0.0000 C   0  0  0  0  0  0  0  0  0  0  0  0
   13.0320   -4.7030   -0.0000 C   0  0  0  0  0  0  0  0  0  0  0  0
   13.0200   -7.1323   -0.0000 N   0  0  0  0  0  0  0  0  0  0  0  0
   13.9055   -5.9117   -0.0000 N   0  0  0  0  0  0  0  0  0  0  0  0
   13.4867   -3.2550   -0.0000 C   0  0  0  0  0  0  0  0  0  0  0  0
   10.2437   -0.3829   -0.0000 F   0  0  0  0  0  0  0  0  0  0  0  0
   11.5481    0.3710   -0.0000 C   0  0  0  0  0  0  0  0  0  0  0  0
   12.2900   -0.9215   -0.0000 F   0  0  0  0  0  0  0  0  0  0  0  0
   10.7822    1.6873   -0.0000 F   0  0  0  0  0  0  0  0  0  0  0  0
   12.8405    1.1369   -0.0000 C   0  0  0  0  0  0  0  0  0  0  0  0
   12.8285    2.6567   -0.0000 O   0  0  0  0  0  0  0  0  0  0  0  0
   14.1329    0.3949   -0.0000 O   0  0  0  0  0  0  0  0  0  0  0  0
  1  2  1  0
  2  3  2  0
  2  4  1  0
  3  5  1  0
  3  6  1  0
  4  7  2  0
  6  8  2  0
  7  9  1  0
 10  8  1  6
 10 11  1  0
 10 12  1  0
 11 13  1  1
 11 14  1  0
 12 15  1  0
 14 16  1  0
 16 17  1  0
 17 18  2  0
 17 19  1  0
 18 20  1  0
 19 21  2  0
 20 22  1  0
 20 23  1  0
 22 24  2  0
 23 25  2  0
 23 26  1  0
 27 28  1  0
 28 29  1  0
 28 30  1  0
 28 31  1  0
 31 32  2  0
 31 33  1  0
  7  8  1  0
 15 16  1  0
 21 22  1  0
 24 25  1  0
M  END
>  <MolRegNo>  (1) 
385319

>  <m>  (1) 
=

>  <Value>  (1) 
8800

>  <Unit>  (1) 
nM

>  <Type>  (1) 
IC50

>  <pValue>  (1) 
5.06

>  <Ligand Efficiency>  (1) 
0

>  <Binding Efficiency>  (1) 
0

>  <Surface Efficiency>  (1) 
0

>  <Assay Index>  (1) 
288258

>  <Assay Category>  (1) 


>  <Assay Organism>  (1) 


>  <Target ID>  (1) 
11365

>  <Target Name>  (1) 
Cytochrome P450 2D6

>  <Target Organism>  (1) 
Homo sapiens

>  <Target Description>  (1) 
Target is a single protein chain

>  <Sequence Accession>  (1) 
P10635

>  <Reference>  (1) 
Bioorg Med Chem Lett 17 (16), 4579-4583 (2007)

>  <Pubmed ID>  (1) 
17562364

>  <DOI>  (1) 
10.1016/j.bmcl.2007.05.087

$$$$
