4wnv_ligand_957
     RDKit          2D

 28 31  0  0  0  0  0  0  0  0999 V2000
    0.0000   -0.0000   -0.0000 O   0  0  0  0  0  0  0  0  0  0  0  0
   -1.3116   -0.7393   -0.0000 C   0  0  0  0  0  0  0  0  0  0  0  0
   -1.3236   -2.2298   -0.0000 N   0  0  0  0  0  0  0  0  0  0  0  0
   -2.6233    0.0238   -0.0000 C   0  0  0  0  0  0  0  0  0  0  0  0
   -0.0358   -2.9691   -0.0000 C   0  0  0  0  0  0  0  0  0  0  0  0
   -2.6233   -2.9691   -0.0000 C   0  0  0  0  0  0  0  0  0  0  0  0
   -3.9349   -0.7154   -0.0000 O   0  0  0  0  0  0  0  0  0  0  0  0
   -0.0477   -4.4715   -0.0000 N   0  0  0  0  0  0  0  0  0  0  0  0
    1.2520   -2.2059   -0.0000 C   0  0  0  0  0  0  0  0  0  0  0  0
   -3.9349   -2.2179   -0.0000 C   0  0  0  0  0  0  0  0  0  0  0  0
    1.2401   -5.2108   -0.0000 C   0  0  0  0  0  0  0  0  0  0  0  0
    2.5398   -2.9452   -0.0000 C   0  0  0  0  0  0  0  0  0  0  0  0
    1.2282   -6.7013   -0.0000 N   0  0  0  0  0  0  0  0  0  0  0  0
    2.5279   -4.4477   -0.0000 C   0  0  0  0  0  0  0  0  0  0  0  0
    3.9707   -2.4564   -0.0000 C   0  0  0  0  0  0  0  0  0  0  0  0
   -0.0835   -7.4406   -0.0000 C   0  0  0  0  0  0  0  0  0  0  0  0
    3.9588   -4.9008   -0.0000 N   0  0  0  0  0  0  0  0  0  0  0  0
    4.8531   -3.6607   -0.0000 C   0  0  0  0  0  0  0  0  0  0  0  0
    4.4238   -1.0135   -0.0000 C   0  0  0  0  0  0  0  0  0  0  0  0
   -0.0954   -8.9311   -0.0000 C   0  0  0  0  0  0  0  0  0  0  0  0
    6.3436   -3.6368   -0.0000 C   0  0  0  0  0  0  0  0  0  0  0  0
    1.1924   -9.6585   -0.0000 C   0  0  0  0  0  0  0  0  0  0  0  0
   -1.4070   -9.6585   -0.0000 C   0  0  0  0  0  0  0  0  0  0  0  0
    1.1924  -11.1490   -0.0000 C   0  0  0  0  0  0  0  0  0  0  0  0
    2.4802   -8.8834   -0.0000 C   0  0  0  0  0  0  0  0  0  0  0  0
   -1.4190  -11.1490   -0.0000 C   0  0  0  0  0  0  0  0  0  0  0  0
   -2.7187   -8.8953   -0.0000 C   0  0  0  0  0  0  0  0  0  0  0  0
   -0.1312  -11.9002   -0.0000 C   0  0  0  0  0  0  0  0  0  0  0  0
  1  2  2  0
  2  3  1  0
  2  4  1  0
  3  5  1  0
  3  6  1  0
  4  7  1  0
  5  8  2  0
  5  9  1  0
  6 10  1  0
  8 11  1  0
  9 12  2  0
 11 13  1  0
 11 14  2  0
 12 15  1  0
 13 16  1  0
 14 17  1  0
 15 18  2  0
 15 19  1  0
 16 20  1  0
 18 21  1  0
 20 22  2  0
 20 23  1  0
 22 24  1  0
 22 25  1  0
 23 26  2  0
 23 27  1  0
 24 28  2  0
  7 10  1  0
 12 14  1  0
 17 18  1  0
 26 28  1  0
M  END
>  <MolRegNo>  (1) 
611677

>  <m>  (1) 
=

>  <Value>  (1) 
25000

>  <Unit>  (1) 
nM

>  <Type>  (1) 
IC50

>  <pValue>  (1) 
4.6

>  <Ligand Efficiency>  (1) 
0

>  <Binding Efficiency>  (1) 
0

>  <Surface Efficiency>  (1) 
0

>  <Assay Index>  (1) 
464697

>  <Assay Category>  (1) 


>  <Assay Organism>  (1) 


>  <Target ID>  (1) 
11365

>  <Target Name>  (1) 
Cytochrome P450 2D6

>  <Target Organism>  (1) 
Homo sapiens

>  <Target Description>  (1) 
Target is a single protein chain

>  <Sequence Accession>  (1) 
P10635

>  <Reference>  (1) 
Bioorg Med Chem Lett 19 (23), 6813-6817 (2009)

>  <Pubmed ID>  (1) 
19846298

>  <DOI>  (1) 
10.1016/j.bmcl.2009.07.002

$$$$
