4wnv_ligand_1099
     RDKit          2D

 38 43  0  0  0  0  0  0  0  0999 V2000
    0.0000   -0.0000   -0.0000 N   0  0  0  0  0  0  0  0  0  0  0  0
   -1.5147    0.0121   -0.0000 N   0  0  0  0  0  0  0  0  0  0  0  0
    0.4605   -1.4178   -0.0000 N   0  0  0  0  0  0  0  0  0  0  0  0
   -1.9873   -1.4056   -0.0000 N   0  0  0  0  0  0  0  0  0  0  0  0
   -0.7755   -2.2781   -0.0000 C   0  0  0  0  0  0  0  0  0  0  0  0
   -3.4171   -1.8540   -0.0000 C   0  0  0  0  0  0  0  0  0  0  0  0
   -0.7876   -3.7686   -0.0000 C   0  0  0  0  0  0  0  0  0  0  0  0
   -4.5441   -0.8361   -0.0000 C   0  0  0  0  0  0  0  0  0  0  0  0
   -2.0963   -4.5077   -0.0000 N   0  0  0  0  0  0  0  0  0  0  0  0
    0.4968   -4.5077   -0.0000 C   0  0  0  0  0  0  0  0  0  0  0  0
   -4.2411    0.6422   -0.0000 C   0  0  0  0  0  0  0  0  0  0  0  0
   -5.9739   -1.2966   -0.0000 C   0  0  0  0  0  0  0  0  0  0  0  0
   -3.3929   -3.6231   -0.0000 C   0  0  0  0  0  0  0  0  0  0  0  0
   -2.0115   -5.9982   -0.0000 C   0  0  0  0  0  0  0  0  0  0  0  0
    0.4726   -5.9861   -0.0000 C   0  0  0  0  0  0  0  0  0  0  0  0
    1.7570   -3.7443   -0.0000 C   0  0  0  0  0  0  0  0  0  0  0  0
   -5.3681    1.6601   -0.0000 C   0  0  0  0  0  0  0  0  0  0  0  0
   -7.1009   -0.2908   -0.0000 C   0  0  0  0  0  0  0  0  0  0  0  0
   -4.7985   -4.0715   -0.0000 C   0  0  0  0  0  0  0  0  0  0  0  0
   -3.1506   -6.9797   -0.0000 C   0  0  0  0  0  0  0  0  0  0  0  0
    1.7692   -6.7131   -0.0000 C   0  0  0  0  0  0  0  0  0  0  0  0
    3.0415   -4.4714   -0.0000 C   0  0  0  0  0  0  0  0  0  0  0  0
   -6.8101    1.2118   -0.0000 C   0  0  0  0  0  0  0  0  0  0  0  0
   -5.3802   -5.4165   -0.0000 N   0  0  0  0  0  0  0  0  0  0  0  0
   -4.7016   -6.7010   -0.0000 C   0  0  0  0  0  0  0  0  0  0  0  0
    3.0536   -5.9497   -0.0000 C   0  0  0  0  0  0  0  0  0  0  0  0
   -6.8828   -5.4771   -0.0000 C   0  0  0  0  0  0  0  0  0  0  0  0
    4.3381   -6.6889   -0.0000 C   0  0  0  0  0  0  0  0  0  0  0  0
   -8.0097   -4.4593   -0.0000 C   0  0  0  0  0  0  0  0  0  0  0  0
   -7.9006   -6.5798   -0.0000 C   0  0  0  0  0  0  0  0  0  0  0  0
    5.6225   -5.9255   -0.0000 N   0  0  0  0  0  0  0  0  0  0  0  0
   -9.0276   -5.5620   -0.0000 C   0  0  0  0  0  0  0  0  0  0  0  0
    6.9070   -6.6646   -0.0000 C   0  0  0  0  0  0  0  0  0  0  0  0
    5.5983   -4.4108   -0.0000 C   0  0  0  0  0  0  0  0  0  0  0  0
    8.1915   -5.8891   -0.0000 C   0  0  0  0  0  0  0  0  0  0  0  0
    6.8949   -3.6474   -0.0000 C   0  0  0  0  0  0  0  0  0  0  0  0
    8.1793   -4.3744   -0.0000 N   0  0  0  0  0  0  0  0  0  0  0  0
    9.4638   -3.6110   -0.0000 C   0  0  0  0  0  0  0  0  0  0  0  0
  1  2  2  0
  1  3  1  0
  2  4  1  0
  3  5  2  0
  4  6  1  0
  5  7  1  0
  6  8  1  0
  7  9  1  0
  7 10  1  0
  8 11  2  0
  8 12  1  0
  9 13  1  0
  9 14  1  0
 10 15  2  0
 10 16  1  0
 11 17  1  0
 12 18  2  0
 13 19  1  0
 14 20  1  0
 15 21  1  0
 16 22  2  0
 17 23  2  0
 19 24  1  0
 20 25  1  0
 21 26  2  0
 24 27  1  0
 26 28  1  0
 27 29  1  0
 27 30  1  0
 28 31  1  0
 29 32  1  0
 31 33  1  0
 31 34  1  0
 33 35  1  0
 34 36  1  0
 35 37  1  0
 37 38  1  0
  4  5  1  0
 18 23  1  0
 22 26  1  0
 24 25  1  0
 30 32  1  0
 36 37  1  0
M  END
>  <MolRegNo>  (1) 
689602

>  <m>  (1) 
=

>  <Value>  (1) 
1700

>  <Unit>  (1) 
nM

>  <Type>  (1) 
IC50

>  <pValue>  (1) 
5.77

>  <Ligand Efficiency>  (1) 
0

>  <Binding Efficiency>  (1) 
0

>  <Surface Efficiency>  (1) 
0

>  <Assay Index>  (1) 
496611

>  <Assay Category>  (1) 


>  <Assay Organism>  (1) 


>  <Target ID>  (1) 
11365

>  <Target Name>  (1) 
Cytochrome P450 2D6

>  <Target Organism>  (1) 
Homo sapiens

>  <Target Description>  (1) 
Target is a single protein chain

>  <Sequence Accession>  (1) 
P10635

>  <Reference>  (1) 
Bioorg Med Chem Lett 20 (17), 5165-5169 (2010)

>  <Pubmed ID>  (1) 
20667729

>  <DOI>  (1) 
10.1016/j.bmcl.2010.07.009

$$$$
