4wnv_ligand_602
     RDKit          2D

 19 21  0  0  0  0  0  0  0  0999 V2000
    0.0000   -0.0000   -0.0000 O   0  0  0  0  0  0  0  0  0  0  0  0
   -0.1661    1.4945   -0.0000 C   0  0  0  0  0  0  0  0  0  0  0  0
    1.4470   -0.2965   -0.0000 C   0  0  0  0  0  0  0  0  0  0  0  0
    1.1861    2.1112   -0.0000 N   0  0  0  0  0  0  0  0  0  0  0  0
   -1.4708    2.2536   -0.0000 C   0  0  0  0  0  0  0  0  0  0  0  0
    2.1824    1.0082   -0.0000 C   0  0  0  0  0  0  0  0  0  0  0  0
   -2.7873    1.5182   -0.0000 C   0  0  0  0  0  0  0  0  0  0  0  0
   -1.4826    3.7718   -0.0000 C   0  0  0  0  0  0  0  0  0  0  0  0
    2.9059    2.3247   -0.0000 C   0  0  0  0  0  0  0  0  0  0  0  0
    3.4634    0.2728   -0.0000 C   0  0  0  0  0  0  0  0  0  0  0  0
   -4.0920    2.2773   -0.0000 C   0  0  0  0  0  0  0  0  0  0  0  0
   -2.7873    4.5309   -0.0000 C   0  0  0  0  0  0  0  0  0  0  0  0
   -4.1039    3.7836   -0.0000 C   0  0  0  0  0  0  0  0  0  0  0  0
   -5.4086    4.5427   -0.0000 C   0  0  0  0  0  0  0  0  0  0  0  0
   -6.7133    3.8074   -0.0000 C   0  0  0  0  0  0  0  0  0  0  0  0
   -8.0891    4.4241   -0.0000 N   0  0  0  0  0  0  0  0  0  0  0  0
   -6.8793    2.3247   -0.0000 C   0  0  0  0  0  0  0  0  0  0  0  0
   -9.0973    3.3211   -0.0000 C   0  0  0  0  0  0  0  0  0  0  0  0
   -8.3501    2.0282   -0.0000 N   0  0  0  0  0  0  0  0  0  0  0  0
  1  2  1  0
  1  3  1  0
  2  4  2  0
  2  5  1  0
  3  6  1  0
  5  7  2  0
  5  8  1  0
  6  9  1  0
  6 10  1  0
  7 11  1  0
  8 12  2  0
 11 13  2  0
 13 14  1  0
 14 15  1  0
 15 16  1  0
 15 17  2  0
 16 18  2  0
 17 19  1  0
  4  6  1  0
 12 13  1  0
 18 19  1  0
M  END
>  <MolRegNo>  (1) 
486230

>  <m>  (1) 
=

>  <Value>  (1) 
543

>  <Unit>  (1) 
nM

>  <Type>  (1) 
IC50

>  <pValue>  (1) 
6.26

>  <Ligand Efficiency>  (1) 
0

>  <Binding Efficiency>  (1) 
0

>  <Surface Efficiency>  (1) 
0

>  <Assay Index>  (1) 
405421

>  <Assay Category>  (1) 


>  <Assay Organism>  (1) 
Homo sapiens

>  <Target ID>  (1) 
11365

>  <Target Name>  (1) 
Cytochrome P450 2D6

>  <Target Organism>  (1) 
Homo sapiens

>  <Target Description>  (1) 
Target is a single protein chain

>  <Sequence Accession>  (1) 
P10635

>  <Reference>  (1) 
J Med Chem 51 (10), 2944-2953 (2008)

>  <Pubmed ID>  (1) 
18433114

>  <DOI>  (1) 
10.1021/jm7014149

$$$$
