4wnv_ligand_526
     RDKit          2D

 35 38  0  0  1  0  0  0  0  0999 V2000
    0.0000   -0.0000   -0.0000 F   0  0  0  0  0  0  0  0  0  0  0  0
   -0.0119    1.5102   -0.0000 C   0  0  0  0  0  0  0  0  0  0  0  0
   -1.3200    2.2713   -0.0000 C   0  0  0  0  0  0  0  0  0  0  0  0
    1.2724    2.2832   -0.0000 C   0  0  0  0  0  0  0  0  0  0  0  0
   -2.6280    1.5340   -0.0000 O   0  0  0  0  0  0  0  0  0  0  0  0
   -1.3437    3.7815   -0.0000 C   0  0  0  0  0  0  0  0  0  0  0  0
    1.2605    3.7934   -0.0000 C   0  0  0  0  0  0  0  0  0  0  0  0
    2.6756    1.8432   -0.0000 C   0  0  0  0  0  0  0  0  0  0  0  0
   -2.6399    0.0476   -0.0000 C   0  0  0  0  0  0  0  0  0  0  0  0
   -0.0713    4.5545   -0.0000 C   0  0  0  0  0  0  0  0  0  0  0  0
    2.6637    4.2691   -0.0000 N   0  0  0  0  0  0  0  0  0  0  0  0
    3.5437    3.0680   -0.0000 C   0  0  0  0  0  0  0  0  0  0  0  0
   -1.3437   -0.6778   -0.0000 N   0  0  0  0  0  0  0  0  0  0  0  0
   -3.9480   -0.6897   -0.0000 C   0  0  0  0  0  0  0  0  0  0  0  0
    5.0301    3.0799   -0.0000 C   0  0  0  0  0  0  0  0  0  0  0  0
   -1.3556   -2.1762   -0.0000 C   0  0  0  0  0  0  0  0  0  0  0  0
   -3.9480   -2.1880   -0.0000 N   0  0  0  0  0  0  0  0  0  0  0  0
   -5.3988   -0.2140   -0.0000 C   0  0  0  0  0  0  0  0  0  0  0  0
   -2.6756   -2.9134   -0.0000 N   0  0  0  0  0  0  0  0  0  0  0  0
   -5.3869   -2.6518   -0.0000 C   0  0  0  0  0  0  0  0  0  0  0  0
   -6.2906   -1.4270   -0.0000 C   0  0  0  0  0  0  0  0  0  0  0  0
   -5.8744    1.2248   -0.0000 C   0  0  0  0  0  0  0  0  0  0  0  0
   -7.8008   -1.4270   -0.0000 O   0  0  0  0  0  0  0  0  0  0  0  0
   -8.5619   -0.1189   -0.0000 C   0  0  0  0  0  0  0  0  0  0  0  0
  -10.0721   -0.1189   -0.0000 C   0  0  0  0  0  0  0  0  0  0  0  0
  -10.8332   -1.4032   -0.0000 O   0  0  0  0  0  0  0  0  0  0  0  0
  -10.8332    1.1892   -0.0000 C   0  0  0  0  0  0  0  0  0  0  0  0
  -10.0959   -2.6875   -0.0000 C   0  0  0  0  0  0  0  0  0  0  0  0
   -8.6095   -2.6756   -0.0000 O   0  0  0  0  0  0  0  0  0  0  0  0
  -10.8570   -3.9718   -0.0000 C   0  0  0  0  0  0  0  0  0  0  0  0
  -12.3672   -3.9599   -0.0000 N   0  0  0  0  0  0  0  0  0  0  0  0
  -10.1197   -5.2561   -0.0000 C   0  0  0  0  0  0  0  0  0  0  0  0
  -10.8808   -6.5403   -0.0000 C   0  0  0  0  0  0  0  0  0  0  0  0
  -10.1435   -7.8246   -0.0000 C   0  0  0  0  0  0  0  0  0  0  0  0
  -12.3910   -6.5403   -0.0000 C   0  0  0  0  0  0  0  0  0  0  0  0
  1  2  1  0
  2  3  2  0
  2  4  1  0
  3  5  1  0
  3  6  1  0
  4  7  2  0
  4  8  1  0
  5  9  1  0
  6 10  2  0
  7 11  1  0
  8 12  2  0
  9 13  2  0
  9 14  1  0
 12 15  1  0
 13 16  1  0
 14 17  1  0
 14 18  2  0
 16 19  2  0
 17 20  1  0
 18 21  1  0
 18 22  1  0
 21 23  1  0
 23 24  1  0
 24 25  1  0
 25 26  1  0
 25 27  1  6
 26 28  1  0
 28 29  2  0
 28 30  1  0
 30 31  1  1
 30 32  1  0
 32 33  1  0
 33 34  1  0
 33 35  1  0
  7 10  1  0
 11 12  1  0
 17 19  1  0
 20 21  2  0
M  END
>  <MolRegNo>  (1) 
440945

>  <m>  (1) 
=

>  <Value>  (1) 
24000

>  <Unit>  (1) 
nM

>  <Type>  (1) 
IC50

>  <pValue>  (1) 
4.62

>  <Ligand Efficiency>  (1) 
0

>  <Binding Efficiency>  (1) 
0

>  <Surface Efficiency>  (1) 
0

>  <Assay Index>  (1) 
313089

>  <Assay Category>  (1) 


>  <Assay Organism>  (1) 
Homo sapiens

>  <Target ID>  (1) 
11365

>  <Target Name>  (1) 
Cytochrome P450 2D6

>  <Target Organism>  (1) 
Homo sapiens

>  <Target Description>  (1) 
Target is a single protein chain

>  <Sequence Accession>  (1) 
P10635

>  <Reference>  (1) 
J Med Chem 51 (6), 1976-1980 (2008)

>  <Pubmed ID>  (1) 
18288793

>  <DOI>  (1) 
10.1021/jm7013309

$$$$
