4wnv_ligand_719
     RDKit          2D

 36 40  0  0  0  0  0  0  0  0999 V2000
    0.0000   -0.0000   -0.0000 F   0  0  0  0  0  0  0  0  0  0  0  0
   -0.7473    1.3166   -0.0000 C   0  0  0  0  0  0  0  0  0  0  0  0
    0.0000    2.6213   -0.0000 C   0  0  0  0  0  0  0  0  0  0  0  0
   -2.2536    1.3403   -0.0000 C   0  0  0  0  0  0  0  0  0  0  0  0
   -0.7591    3.9379   -0.0000 C   0  0  0  0  0  0  0  0  0  0  0  0
   -2.9890    2.6569   -0.0000 C   0  0  0  0  0  0  0  0  0  0  0  0
   -0.0119    5.2426   -0.0000 F   0  0  0  0  0  0  0  0  0  0  0  0
   -2.2655    3.9616   -0.0000 C   0  0  0  0  0  0  0  0  0  0  0  0
   -4.4954    2.6806   -0.0000 C   0  0  0  0  0  0  0  0  0  0  0  0
   -5.2426    3.9972   -0.0000 C   0  0  0  0  0  0  0  0  0  0  0  0
   -6.7490    4.0209   -0.0000 C   0  0  0  0  0  0  0  0  0  0  0  0
   -7.5200    2.7518   -0.0000 O   0  0  0  0  0  0  0  0  0  0  0  0
   -7.4963    5.3375   -0.0000 N   0  0  0  0  0  0  0  0  0  0  0  0
   -9.0026    5.3731   -0.0000 C   0  0  0  0  0  0  0  0  0  0  0  0
   -6.7490    6.6423   -0.0000 C   0  0  0  0  0  0  0  0  0  0  0  0
   -9.7499    6.6778   -0.0000 C   0  0  0  0  0  0  0  0  0  0  0  0
   -7.4963    7.9588   -0.0000 C   0  0  0  0  0  0  0  0  0  0  0  0
   -8.9908    7.9826   -0.0000 C   0  0  0  0  0  0  0  0  0  0  0  0
   -9.7380    9.2992   -0.0000 C   0  0  0  0  0  0  0  0  0  0  0  0
   -8.9789   10.5802   -0.0000 N   0  0  0  0  0  0  0  0  0  0  0  0
  -11.2444    9.3347   -0.0000 C   0  0  0  0  0  0  0  0  0  0  0  0
   -7.4844   10.5683   -0.0000 C   0  0  0  0  0  0  0  0  0  0  0  0
   -9.7262   11.9086   -0.0000 C   0  0  0  0  0  0  0  0  0  0  0  0
  -11.9798   10.6513   -0.0000 O   0  0  0  0  0  0  0  0  0  0  0  0
   -6.7371   11.8730   -0.0000 C   0  0  0  0  0  0  0  0  0  0  0  0
   -8.9670   13.2015   -0.0000 C   0  0  0  0  0  0  0  0  0  0  0  0
   -7.4844   13.2015   -0.0000 C   0  0  0  0  0  0  0  0  0  0  0  0
   -6.7253   14.4943   -0.0000 C   0  0  0  0  0  0  0  0  0  0  0  0
   -5.2545   14.6485   -0.0000 C   0  0  0  0  0  0  0  0  0  0  0  0
   -7.3183   15.8821   -0.0000 C   0  0  0  0  0  0  0  0  0  0  0  0
   -4.9342   16.1075   -0.0000 C   0  0  0  0  0  0  0  0  0  0  0  0
   -4.1751   13.6522   -0.0000 C   0  0  0  0  0  0  0  0  0  0  0  0
   -6.2034   16.8784   -0.0000 N   0  0  0  0  0  0  0  0  0  0  0  0
   -3.5346   16.5582   -0.0000 N   0  0  0  0  0  0  0  0  0  0  0  0
   -2.7637   14.1029   -0.0000 C   0  0  0  0  0  0  0  0  0  0  0  0
   -2.4553   15.5618   -0.0000 C   0  0  0  0  0  0  0  0  0  0  0  0
  1  2  1  0
  2  3  2  0
  2  4  1  0
  3  5  1  0
  4  6  2  0
  5  7  1  0
  5  8  2  0
  6  9  1  0
  9 10  2  0
 10 11  1  0
 11 12  2  0
 11 13  1  0
 13 14  1  0
 13 15  1  0
 14 16  1  0
 15 17  1  0
 16 18  1  0
 18 19  1  0
 19 20  1  0
 19 21  1  6
 20 22  1  0
 20 23  1  0
 21 24  1  0
 22 25  1  0
 23 26  1  0
 25 27  1  0
 27 28  1  0
 28 29  1  0
 28 30  2  0
 29 31  2  0
 29 32  1  0
 30 33  1  0
 31 34  1  0
 32 35  2  0
 34 36  2  0
  6  8  1  0
 17 18  1  0
 26 27  1  0
 31 33  1  0
 35 36  1  0
M  END
>  <MolRegNo>  (1) 
453111

>  <m>  (1) 
=

>  <Value>  (1) 
13300

>  <Unit>  (1) 
nM

>  <Type>  (1) 
IC50

>  <pValue>  (1) 
4.88

>  <Ligand Efficiency>  (1) 
0

>  <Binding Efficiency>  (1) 
0

>  <Surface Efficiency>  (1) 
0

>  <Assay Index>  (1) 
407986

>  <Assay Category>  (1) 


>  <Assay Organism>  (1) 
Homo sapiens

>  <Target ID>  (1) 
11365

>  <Target Name>  (1) 
Cytochrome P450 2D6

>  <Target Organism>  (1) 
Homo sapiens

>  <Target Description>  (1) 
Target is a single protein chain

>  <Sequence Accession>  (1) 
P10635

>  <Reference>  (1) 
Bioorg Med Chem Lett 18 (24), 6468-6470 (2008)

>  <Pubmed ID>  (1) 
18990568

>  <DOI>  (1) 
10.1016/j.bmcl.2008.10.061

$$$$
