4wnv_ligand_295
     RDKit          2D

 45 49  0  0  1  0  0  0  0  0999 V2000
    0.0000   -0.0000   -0.0000 Cl  0  0  0  0  0  0  0  0  0  0  0  0
    0.0000    1.5057   -0.0000 C   0  0  0  0  0  0  0  0  0  0  0  0
   -1.3041    2.2763   -0.0000 C   0  0  0  0  0  0  0  0  0  0  0  0
    1.2923    2.2644   -0.0000 C   0  0  0  0  0  0  0  0  0  0  0  0
   -1.3041    3.7819   -0.0000 C   0  0  0  0  0  0  0  0  0  0  0  0
    1.2804    3.7582   -0.0000 C   0  0  0  0  0  0  0  0  0  0  0  0
   -0.0119    4.5288   -0.0000 C   0  0  0  0  0  0  0  0  0  0  0  0
   -0.0119    6.0345   -0.0000 C   0  0  0  0  0  0  0  0  0  0  0  0
   -0.0119    7.5402   -0.0000 C   0  0  0  0  0  0  0  0  0  0  0  0
   -1.5175    6.0582   -0.0000 C   0  0  0  0  0  0  0  0  0  0  0  0
    1.4701    6.0345   -0.0000 C   0  0  0  0  0  0  0  0  0  0  0  0
   -1.3160    8.3108   -0.0000 C   0  0  0  0  0  0  0  0  0  0  0  0
   -1.3160    9.8165   -0.0000 N   0  0  0  0  0  0  0  0  0  0  0  0
   -2.7386   10.3144   -0.0000 C   0  0  0  0  0  0  0  0  0  0  0  0
   -3.1892   11.7489   -0.0000 C   0  0  0  0  0  0  0  0  0  0  0  0
   -3.9716    9.4608   -0.0000 C   0  0  0  0  0  0  0  0  0  0  0  0
   -4.6948   11.7726   -0.0000 N   0  0  0  0  0  0  0  0  0  0  0  0
   -5.1809   10.3618   -0.0000 C   0  0  0  0  0  0  0  0  0  0  0  0
   -5.4892   13.0530   -0.0000 C   0  0  0  0  0  0  0  0  0  0  0  0
   -4.7897   14.3809   -0.0000 O   0  0  0  0  0  0  0  0  0  0  0  0
   -6.9948   13.0175   -0.0000 N   0  0  0  0  0  0  0  0  0  0  0  0
   -7.8484   11.7963   -0.0000 C   0  0  0  0  0  0  0  0  0  0  0  0
   -7.9196   14.2149   -0.0000 C   0  0  0  0  0  0  0  0  0  0  0  0
   -9.2829   12.2231   -0.0000 C   0  0  0  0  0  0  0  0  0  0  0  0
   -9.3422   13.7170   -0.0000 C   0  0  0  0  0  0  0  0  0  0  0  0
  -10.5871   11.4762   -0.0000 N   0  0  0  0  0  0  0  0  0  0  0  0
  -11.9030   12.2231   -0.0000 C   0  0  0  0  0  0  0  0  0  0  0  0
  -10.5871    9.9943   -0.0000 C   0  0  0  0  0  0  0  0  0  0  0  0
  -11.9268   13.7288   -0.0000 O   0  0  0  0  0  0  0  0  0  0  0  0
  -13.2072   11.4762   -0.0000 C   0  0  0  0  0  0  0  0  0  0  0  0
  -13.2072    9.9943   -0.0000 C   0  0  0  0  0  0  0  0  0  0  0  0
  -14.5231   12.2231   -0.0000 C   0  0  0  0  0  0  0  0  0  0  0  0
  -14.5113    9.2592   -0.0000 C   0  0  0  0  0  0  0  0  0  0  0  0
  -15.8154   11.4762   -0.0000 C   0  0  0  0  0  0  0  0  0  0  0  0
  -15.8154   10.0180   -0.0000 C   0  0  0  0  0  0  0  0  0  0  0  0
  -17.1195    9.2711   -0.0000 C   0  0  0  0  0  0  0  0  0  0  0  0
  -18.4355   10.0180   -0.0000 C   0  0  0  0  0  0  0  0  0  0  0  0
  -17.1314    7.7773   -0.0000 C   0  0  0  0  0  0  0  0  0  0  0  0
  -19.7277    9.2829   -0.0000 C   0  0  0  0  0  0  0  0  0  0  0  0
  -18.4473    7.0422   -0.0000 C   0  0  0  0  0  0  0  0  0  0  0  0
  -19.7396    7.8010   -0.0000 C   0  0  0  0  0  0  0  0  0  0  0  0
  -21.0437    7.0659   -0.0000 C   0  0  0  0  0  0  0  0  0  0  0  0
  -22.3597    6.3428   -0.0000 F   0  0  0  0  0  0  0  0  0  0  0  0
  -20.3087    5.7855   -0.0000 F   0  0  0  0  0  0  0  0  0  0  0  0
  -21.8143    8.3701   -0.0000 F   0  0  0  0  0  0  0  0  0  0  0  0
  1  2  1  0
  2  3  2  0
  2  4  1  0
  3  5  1  0
  4  6  2  0
  5  7  2  0
  7  8  1  0
  8  9  1  0
  8 10  1  0
  8 11  1  0
  9 12  1  0
 12 13  1  0
 14 13  1  6
 14 15  1  0
 14 16  1  0
 15 17  1  0
 16 18  1  0
 17 19  1  0
 19 20  2  0
 19 21  1  0
 21 22  1  0
 21 23  1  0
 22 24  1  0
 23 25  1  0
 24 26  1  1
 26 27  1  0
 26 28  1  0
 27 29  2  0
 27 30  1  0
 30 31  2  0
 30 32  1  0
 31 33  1  0
 32 34  2  0
 33 35  2  0
 35 36  1  0
 36 37  2  0
 36 38  1  0
 37 39  1  0
 38 40  2  0
 39 41  2  0
 41 42  1  0
 42 43  1  0
 42 44  1  0
 42 45  1  0
  6  7  1  0
 17 18  1  0
 24 25  1  0
 34 35  1  0
 40 41  1  0
M  END
>  <MolRegNo>  (1) 
357097

>  <m>  (1) 
=

>  <Value>  (1) 
3300

>  <Unit>  (1) 
nM

>  <Type>  (1) 
IC50

>  <pValue>  (1) 
5.48

>  <Ligand Efficiency>  (1) 
0

>  <Binding Efficiency>  (1) 
0

>  <Surface Efficiency>  (1) 
0

>  <Assay Index>  (1) 
268372

>  <Assay Category>  (1) 


>  <Assay Organism>  (1) 
Homo sapiens

>  <Target ID>  (1) 
11365

>  <Target Name>  (1) 
Cytochrome P450 2D6

>  <Target Organism>  (1) 
Homo sapiens

>  <Target Description>  (1) 
Target is a single protein chain

>  <Sequence Accession>  (1) 
P10635

>  <Reference>  (1) 
Bioorg Med Chem Lett 16 (17), 4450-4457 (2006)

>  <Pubmed ID>  (1) 
16814542

>  <DOI>  (1) 
10.1016/j.bmcl.2006.06.045

$$$$
