4wnv_ligand_98
     RDKit          2D

 12 13  0  0  0  0  0  0  0  0999 V2000
    0.0000   -0.0000   -0.0000 S   0  0  0  0  0  0  0  0  0  0  0  0
    1.0164   -1.1253   -0.0000 C   0  0  0  0  0  0  0  0  0  0  0  0
    0.7502    1.3430   -0.0000 C   0  0  0  0  0  0  0  0  0  0  0  0
    2.3836   -0.4719   -0.0000 C   0  0  0  0  0  0  0  0  0  0  0  0
    2.2384    1.0406   -0.0000 C   0  0  0  0  0  0  0  0  0  0  0  0
    3.7025   -1.2342   -0.0000 C   0  0  0  0  0  0  0  0  0  0  0  0
    3.6904   -2.7587   -0.0000 C   0  0  0  0  0  0  0  0  0  0  0  0
    5.0213   -0.4598   -0.0000 C   0  0  0  0  0  0  0  0  0  0  0  0
    5.0092   -3.5210   -0.0000 N   0  0  0  0  0  0  0  0  0  0  0  0
    6.3402   -1.2221   -0.0000 C   0  0  0  0  0  0  0  0  0  0  0  0
    6.3281   -2.7466   -0.0000 C   0  0  0  0  0  0  0  0  0  0  0  0
    7.3807   -3.3516   -0.0000 F   0  0  0  0  0  0  0  0  0  0  0  0
  1  2  1  0
  1  3  1  0
  2  4  2  0
  3  5  2  0
  4  6  1  0
  6  7  2  0
  6  8  1  0
  7  9  1  0
  8 10  2  0
  9 11  2  0
 11 12  1  0
  4  5  1  0
 10 11  1  0
M  END
>  <MolRegNo>  (1) 
299438

>  <m>  (1) 
=

>  <Value>  (1) 
199000

>  <Unit>  (1) 
nM

>  <Type>  (1) 
IC50

>  <pValue>  (1) 
0

>  <Ligand Efficiency>  (1) 
0

>  <Binding Efficiency>  (1) 
0

>  <Surface Efficiency>  (1) 
0

>  <Assay Index>  (1) 
238570

>  <Assay Category>  (1) 


>  <Assay Organism>  (1) 
Homo sapiens

>  <Target ID>  (1) 
11365

>  <Target Name>  (1) 
Cytochrome P450 2D6

>  <Target Organism>  (1) 
Homo sapiens

>  <Target Description>  (1) 
Target is a single protein chain

>  <Sequence Accession>  (1) 
P10635

>  <Reference>  (1) 
J Med Chem 48 (1), 224-239 (2005)

>  <Pubmed ID>  (1) 
15634016

>  <DOI>  (1) 
10.1021/jm049696n

$$$$
