4wnv_ligand_431
     RDKit          2D

 39 42  0  0  1  0  0  0  0  0999 V2000
    0.0000   -0.0000   -0.0000 S   0  0  0  0  0  0  0  0  0  0  0  0
    1.2039    0.8940   -0.0000 C   0  0  0  0  0  0  0  0  0  0  0  0
    0.4530   -1.4185   -0.0000 C   0  0  0  0  0  0  0  0  0  0  0  0
    2.4078    0.0358   -0.0000 N   0  0  0  0  0  0  0  0  0  0  0  0
    1.1920    2.4078   -0.0000 N   0  0  0  0  0  0  0  0  0  0  0  0
    1.9429   -1.4065   -0.0000 C   0  0  0  0  0  0  0  0  0  0  0  0
   -0.3338   -2.6820   -0.0000 C   0  0  0  0  0  0  0  0  0  0  0  0
   -0.1192    3.1826   -0.0000 C   0  0  0  0  0  0  0  0  0  0  0  0
    2.8131   -2.6105   -0.0000 C   0  0  0  0  0  0  0  0  0  0  0  0
   -1.8476   -2.6462   -0.0000 O   0  0  0  0  0  0  0  0  0  0  0  0
    0.3814   -3.9812   -0.0000 C   0  0  0  0  0  0  0  0  0  0  0  0
   -1.4304    2.4436   -0.0000 O   0  0  0  0  0  0  0  0  0  0  0  0
   -0.1311    4.6964   -0.0000 N   0  0  0  0  0  0  0  0  0  0  0  0
   -1.4423    5.4593   -0.0000 C   0  0  0  0  0  0  0  0  0  0  0  0
   -1.4542    6.9731   -0.0000 C   0  0  0  0  0  0  0  0  0  0  0  0
   -2.7535    4.7322   -0.0000 C   0  0  0  0  0  0  0  0  0  0  0  0
   -2.7654    7.7479   -0.0000 C   0  0  0  0  0  0  0  0  0  0  0  0
   -0.1550    7.7360   -0.0000 C   0  0  0  0  0  0  0  0  0  0  0  0
   -4.0647    5.4831   -0.0000 N   0  0  0  0  0  0  0  0  0  0  0  0
   -4.0766    6.9970   -0.0000 C   0  0  0  0  0  0  0  0  0  0  0  0
    1.1324    6.9851   -0.0000 N   0  0  0  0  0  0  0  0  0  0  0  0
   -5.3759    4.7441   -0.0000 C   0  0  0  0  0  0  0  0  0  0  0  0
    2.4197    7.7479   -0.0000 C   0  0  0  0  0  0  0  0  0  0  0  0
    1.1205    5.4831   -0.0000 C   0  0  0  0  0  0  0  0  0  0  0  0
   -5.3878    3.2541   -0.0000 O   0  0  0  0  0  0  0  0  0  0  0  0
   -6.6871    5.4951   -0.0000 N   0  0  0  0  0  0  0  0  0  0  0  0
    3.7071    6.9970   -0.0000 C   0  0  0  0  0  0  0  0  0  0  0  0
    2.4078    4.7441   -0.0000 C   0  0  0  0  0  0  0  0  0  0  0  0
   -6.6990    7.0089   -0.0000 C   0  0  0  0  0  0  0  0  0  0  0  0
    3.6832    5.5070   -0.0000 C   0  0  0  0  0  0  0  0  0  0  0  0
    5.0064    7.7598   -0.0000 C   0  0  0  0  0  0  0  0  0  0  0  0
   -8.0102    7.7598   -0.0000 C   0  0  0  0  0  0  0  0  0  0  0  0
    6.2937    7.0089   -0.0000 C   0  0  0  0  0  0  0  0  0  0  0  0
    6.2579    5.5189   -0.0000 C   0  0  0  0  0  0  0  0  0  0  0  0
    7.5810    7.7718   -0.0000 C   0  0  0  0  0  0  0  0  0  0  0  0
    7.5453    4.7799   -0.0000 C   0  0  0  0  0  0  0  0  0  0  0  0
    8.8684    7.0208   -0.0000 C   0  0  0  0  0  0  0  0  0  0  0  0
    8.8446    5.5308   -0.0000 C   0  0  0  0  0  0  0  0  0  0  0  0
   10.1319    4.7918   -0.0000 F   0  0  0  0  0  0  0  0  0  0  0  0
  1  2  1  0
  1  3  1  0
  2  4  2  0
  2  5  1  0
  3  6  2  0
  3  7  1  0
  5  8  1  0
  6  9  1  0
  7 10  2  0
  7 11  1  0
  8 12  2  0
  8 13  1  0
 14 13  1  6
 14 15  1  0
 14 16  1  0
 15 17  1  0
 15 18  1  1
 16 19  1  0
 17 20  1  0
 18 21  1  0
 19 22  1  0
 21 23  1  0
 21 24  1  0
 22 25  2  0
 22 26  1  0
 23 27  1  0
 24 28  1  0
 26 29  1  0
 27 30  1  0
 27 31  1  6
 29 32  1  0
 31 33  1  0
 33 34  2  0
 33 35  1  0
 34 36  1  0
 35 37  2  0
 36 38  2  0
 38 39  1  0
  4  6  1  0
 19 20  1  0
 28 30  1  0
 37 38  1  0
M  END
>  <MolRegNo>  (1) 
421515

>  <m>  (1) 
=

>  <Value>  (1) 
1100

>  <Unit>  (1) 
nM

>  <Type>  (1) 
IC50

>  <pValue>  (1) 
5.96

>  <Ligand Efficiency>  (1) 
0

>  <Binding Efficiency>  (1) 
0

>  <Surface Efficiency>  (1) 
0

>  <Assay Index>  (1) 
307824

>  <Assay Category>  (1) 


>  <Assay Organism>  (1) 
Homo sapiens

>  <Target ID>  (1) 
11365

>  <Target Name>  (1) 
Cytochrome P450 2D6

>  <Target Organism>  (1) 
Homo sapiens

>  <Target Description>  (1) 
Target is a single protein chain

>  <Sequence Accession>  (1) 
P10635

>  <Reference>  (1) 
Bioorg Med Chem Lett 17 (11), 2992-2997 (2007)

>  <Pubmed ID>  (1) 
17418570

>  <DOI>  (1) 
10.1016/j.bmcl.2007.03.065

$$$$
