4wnv_ligand_947
     RDKit          2D

 43 48  0  0  0  0  0  0  0  0999 V2000
    0.0000   -0.0000   -0.0000 O   0  0  0  0  0  0  0  0  0  0  0  0
   -0.0119   -1.4880   -0.0000 C   0  0  0  0  0  0  0  0  0  0  0  0
    1.2738   -2.2261   -0.0000 N   0  0  0  0  0  0  0  0  0  0  0  0
   -1.3214   -2.2261   -0.0000 C   0  0  0  0  0  0  0  0  0  0  0  0
    2.5594   -1.4404   -0.0000 C   0  0  0  0  0  0  0  0  0  0  0  0
   -2.6308   -1.4642   -0.0000 C   0  0  0  0  0  0  0  0  0  0  0  0
   -1.3333   -3.7260   -0.0000 C   0  0  0  0  0  0  0  0  0  0  0  0
    3.8570   -2.1904   -0.0000 C   0  0  0  0  0  0  0  0  0  0  0  0
    3.7617   -0.5476   -0.0000 C   0  0  0  0  0  0  0  0  0  0  0  0
    1.3333   -0.5476   -0.0000 C   0  0  0  0  0  0  0  0  0  0  0  0
   -3.9403   -2.2023   -0.0000 C   0  0  0  0  0  0  0  0  0  0  0  0
   -2.6547   -4.4641   -0.0000 C   0  0  0  0  0  0  0  0  0  0  0  0
    3.8451   -3.6784   -0.0000 O   0  0  0  0  0  0  0  0  0  0  0  0
    5.1426   -1.4285   -0.0000 N   0  0  0  0  0  0  0  0  0  0  0  0
    3.2856    0.8928   -0.0000 C   0  0  0  0  0  0  0  0  0  0  0  0
    1.7856    0.8928   -0.0000 C   0  0  0  0  0  0  0  0  0  0  0  0
   -5.3807   -1.7261   -0.0000 N   0  0  0  0  0  0  0  0  0  0  0  0
   -3.9522   -3.7022   -0.0000 C   0  0  0  0  0  0  0  0  0  0  0  0
    6.4283   -2.1666   -0.0000 C   0  0  0  0  0  0  0  0  0  0  0  0
   -6.2855   -2.9284   -0.0000 C   0  0  0  0  0  0  0  0  0  0  0  0
   -5.4045   -4.1546   -0.0000 N   0  0  0  0  0  0  0  0  0  0  0  0
    6.4164   -3.6546   -0.0000 C   0  0  0  0  0  0  0  0  0  0  0  0
    7.7021   -1.4047   -0.0000 C   0  0  0  0  0  0  0  0  0  0  0  0
   -7.7973   -2.9165   -0.0000 C   0  0  0  0  0  0  0  0  0  0  0  0
   -5.8807   -5.5712   -0.0000 C   0  0  0  0  0  0  0  0  0  0  0  0
    7.7021   -4.3927   -0.0000 C   0  0  0  0  0  0  0  0  0  0  0  0
    8.9877   -2.1309   -0.0000 C   0  0  0  0  0  0  0  0  0  0  0  0
   -8.5473   -4.2022   -0.0000 N   0  0  0  0  0  0  0  0  0  0  0  0
   -8.5473   -1.5952   -0.0000 C   0  0  0  0  0  0  0  0  0  0  0  0
   -7.3925   -5.5474   -0.0000 C   0  0  0  0  0  0  0  0  0  0  0  0
   -5.1426   -6.8569   -0.0000 C   0  0  0  0  0  0  0  0  0  0  0  0
    8.9877   -3.6308   -0.0000 C   0  0  0  0  0  0  0  0  0  0  0  0
  -10.0591   -4.1903   -0.0000 C   0  0  0  0  0  0  0  0  0  0  0  0
  -10.0591   -1.5833   -0.0000 C   0  0  0  0  0  0  0  0  0  0  0  0
   -8.1544   -6.8211   -0.0000 C   0  0  0  0  0  0  0  0  0  0  0  0
   -5.9164   -8.1425   -0.0000 C   0  0  0  0  0  0  0  0  0  0  0  0
   10.2734   -4.3689   -0.0000 C   0  0  0  0  0  0  0  0  0  0  0  0
  -10.8329   -2.8689   -0.0000 C   0  0  0  0  0  0  0  0  0  0  0  0
   -7.4283   -8.1187   -0.0000 C   0  0  0  0  0  0  0  0  0  0  0  0
   11.5590   -3.6070   -0.0000 C   0  0  0  0  0  0  0  0  0  0  0  0
   12.8447   -4.3451   -0.0000 C   0  0  0  0  0  0  0  0  0  0  0  0
   14.1423   -3.5832   -0.0000 O   0  0  0  0  0  0  0  0  0  0  0  0
   12.8447   -5.8331   -0.0000 O   0  0  0  0  0  0  0  0  0  0  0  0
  1  2  2  0
  2  3  1  0
  2  4  1  0
  3  5  1  0
  4  6  2  0
  4  7  1  0
  5  8  1  0
  5  9  1  0
  5 10  1  0
  6 11  1  0
  7 12  2  0
  8 13  2  0
  8 14  1  0
  9 15  1  0
 10 16  1  0
 11 17  1  0
 11 18  2  0
 14 19  1  0
 17 20  2  0
 18 21  1  0
 19 22  2  0
 19 23  1  0
 20 24  1  0
 21 25  1  0
 22 26  1  0
 23 27  2  0
 24 28  2  0
 24 29  1  0
 25 30  1  0
 25 31  1  0
 26 32  2  0
 28 33  1  0
 29 34  2  0
 30 35  1  0
 31 36  1  0
 32 37  1  0
 33 38  2  0
 35 39  1  0
 37 40  2  0
 40 41  1  0
 41 42  2  0
 41 43  1  0
 12 18  1  0
 15 16  1  0
 20 21  1  0
 27 32  1  0
 34 38  1  0
 36 39  1  0
M  END
>  <MolRegNo>  (1) 
616413

>  <m>  (1) 
=

>  <Value>  (1) 
30000

>  <Unit>  (1) 
nM

>  <Type>  (1) 
IC50

>  <pValue>  (1) 
4.52

>  <Ligand Efficiency>  (1) 
0

>  <Binding Efficiency>  (1) 
0

>  <Surface Efficiency>  (1) 
0

>  <Assay Index>  (1) 
461198

>  <Assay Category>  (1) 


>  <Assay Organism>  (1) 


>  <Target ID>  (1) 
11365

>  <Target Name>  (1) 
Cytochrome P450 2D6

>  <Target Organism>  (1) 
Homo sapiens

>  <Target Description>  (1) 
Target is a single protein chain

>  <Sequence Accession>  (1) 
P10635

>  <Reference>  (1) 
Bioorg Med Chem Lett 20 (6), 1825-1829 (2010)

>  <Pubmed ID>  (1) 
20185309

>  <DOI>  (1) 
10.1016/j.bmcl.2010.02.003

$$$$
