4wnv_ligand_653
     RDKit          2D

 28 30  0  0  0  0  0  0  0  0999 V2000
    0.0000   -0.0000   -0.0000 Cl  0  0  0  0  0  0  0  0  0  0  0  0
    1.2933   -0.7356   -0.0000 C   0  0  0  0  0  0  0  0  0  0  0  0
    1.2814   -2.2306   -0.0000 C   0  0  0  0  0  0  0  0  0  0  0  0
    2.5747    0.0237   -0.0000 C   0  0  0  0  0  0  0  0  0  0  0  0
   -0.0356   -2.9663   -0.0000 Cl  0  0  0  0  0  0  0  0  0  0  0  0
    2.5747   -2.9663   -0.0000 C   0  0  0  0  0  0  0  0  0  0  0  0
    3.8680   -0.7119   -0.0000 C   0  0  0  0  0  0  0  0  0  0  0  0
    3.8680   -2.2069   -0.0000 C   0  0  0  0  0  0  0  0  0  0  0  0
    5.1495    0.0593   -0.0000 N   0  0  0  0  0  0  0  0  0  0  0  0
    6.4428   -0.6763   -0.0000 C   0  0  0  0  0  0  0  0  0  0  0  0
    5.1376    1.5781   -0.0000 C   0  0  0  0  0  0  0  0  0  0  0  0
    7.7242    0.0949   -0.0000 C   0  0  0  0  0  0  0  0  0  0  0  0
    9.0175   -0.6407   -0.0000 O   0  0  0  0  0  0  0  0  0  0  0  0
    7.7124    1.6137   -0.0000 N   0  0  0  0  0  0  0  0  0  0  0  0
    9.0057    2.3849   -0.0000 C   0  0  0  0  0  0  0  0  0  0  0  0
    6.4072    2.3730   -0.0000 C   0  0  0  0  0  0  0  0  0  0  0  0
    8.9938    3.8918   -0.0000 C   0  0  0  0  0  0  0  0  0  0  0  0
   10.2990    1.6493   -0.0000 C   0  0  0  0  0  0  0  0  0  0  0  0
   10.2871    4.6511   -0.0000 C   0  0  0  0  0  0  0  0  0  0  0  0
    7.6886    4.6393   -0.0000 C   0  0  0  0  0  0  0  0  0  0  0  0
   11.5923    2.4086   -0.0000 N   0  0  0  0  0  0  0  0  0  0  0  0
   10.2752    6.1580   -0.0000 C   0  0  0  0  0  0  0  0  0  0  0  0
    7.6768    6.1462   -0.0000 C   0  0  0  0  0  0  0  0  0  0  0  0
   12.9567    1.8154   -0.0000 C   0  0  0  0  0  0  0  0  0  0  0  0
   11.7346    3.9155   -0.0000 C   0  0  0  0  0  0  0  0  0  0  0  0
    8.9701    6.9174   -0.0000 C   0  0  0  0  0  0  0  0  0  0  0  0
   13.9534    2.9426   -0.0000 C   0  0  0  0  0  0  0  0  0  0  0  0
   13.1941    4.2359   -0.0000 C   0  0  0  0  0  0  0  0  0  0  0  0
  1  2  1  0
  2  3  2  0
  2  4  1  0
  3  5  1  0
  3  6  1  0
  4  7  2  0
  6  8  2  0
  7  9  1  0
  9 10  1  0
  9 11  1  0
 10 12  1  0
 12 13  2  0
 12 14  1  0
 14 15  1  0
 14 16  1  0
 15 17  1  0
 15 18  1  0
 17 19  2  0
 17 20  1  0
 18 21  1  0
 19 22  1  0
 20 23  2  0
 21 24  1  0
 21 25  1  0
 22 26  2  0
 24 27  1  0
 25 28  1  0
  7  8  1  0
 23 26  1  0
 27 28  1  0
M  END
>  <MolRegNo>  (1) 
449107

>  <m>  (1) 
=

>  <Value>  (1) 
160

>  <Unit>  (1) 
nM

>  <Type>  (1) 
IC50

>  <pValue>  (1) 
6.8

>  <Ligand Efficiency>  (1) 
0

>  <Binding Efficiency>  (1) 
0

>  <Surface Efficiency>  (1) 
0

>  <Assay Index>  (1) 
404069

>  <Assay Category>  (1) 


>  <Assay Organism>  (1) 


>  <Target ID>  (1) 
11365

>  <Target Name>  (1) 
Cytochrome P450 2D6

>  <Target Organism>  (1) 
Homo sapiens

>  <Target Description>  (1) 
Target is a single protein chain

>  <Sequence Accession>  (1) 
P10635

>  <Reference>  (1) 
Bioorg Med Chem Lett 18 (13), 3716-3719 (2008)

>  <Pubmed ID>  (1) 
18524591

>  <DOI>  (1) 
10.1016/j.bmcl.2008.05.058

$$$$
