4wnv_ligand_1008
     RDKit          2D

 22 24  0  0  0  0  0  0  0  0999 V2000
    0.0000   -0.0000   -0.0000 S   0  0  0  0  0  0  0  0  0  0  0  0
   -1.4531   -0.4526   -0.0000 C   0  0  0  0  0  0  0  0  0  0  0  0
    0.8814   -1.2029   -0.0000 C   0  0  0  0  0  0  0  0  0  0  0  0
   -1.4650   -1.9533   -0.0000 C   0  0  0  0  0  0  0  0  0  0  0  0
   -2.7632    0.2978   -0.0000 C   0  0  0  0  0  0  0  0  0  0  0  0
   -0.0119   -2.4178   -0.0000 C   0  0  0  0  0  0  0  0  0  0  0  0
    2.3702   -1.1791   -0.0000 C   0  0  0  0  0  0  0  0  0  0  0  0
   -2.7751   -2.6917   -0.0000 C   0  0  0  0  0  0  0  0  0  0  0  0
   -4.0733   -0.4407   -0.0000 C   0  0  0  0  0  0  0  0  0  0  0  0
    0.4526   -3.8232   -0.0000 C   0  0  0  0  0  0  0  0  0  0  0  0
    3.1205   -2.4654   -0.0000 C   0  0  0  0  0  0  0  0  0  0  0  0
   -4.0853   -1.9295   -0.0000 C   0  0  0  0  0  0  0  0  0  0  0  0
   -0.8575   -4.5617   -0.0000 C   0  0  0  0  0  0  0  0  0  0  0  0
    1.9057   -4.1091   -0.0000 C   0  0  0  0  0  0  0  0  0  0  0  0
    4.6093   -2.4416   -0.0000 N   0  0  0  0  0  0  0  0  0  0  0  0
   -0.8575   -6.0386   -0.0000 C   0  0  0  0  0  0  0  0  0  0  0  0
   -2.1677   -3.7994   -0.0000 C   0  0  0  0  0  0  0  0  0  0  0  0
    5.3478   -3.7279   -0.0000 C   0  0  0  0  0  0  0  0  0  0  0  0
    5.3358   -1.1315   -0.0000 C   0  0  0  0  0  0  0  0  0  0  0  0
   -2.1558   -6.7889   -0.0000 N   0  0  0  0  0  0  0  0  0  0  0  0
   -3.4778   -4.5379   -0.0000 C   0  0  0  0  0  0  0  0  0  0  0  0
   -3.4778   -6.0386   -0.0000 C   0  0  0  0  0  0  0  0  0  0  0  0
  1  2  1  0
  1  3  1  0
  2  4  2  0
  2  5  1  0
  3  6  2  0
  3  7  1  0
  4  8  1  0
  5  9  2  0
  6 10  1  0
  7 11  1  0
  8 12  2  0
 10 13  1  0
 10 14  1  6
 11 15  1  0
 13 16  2  0
 13 17  1  0
 15 18  1  0
 15 19  1  0
 16 20  1  0
 17 21  2  0
 20 22  2  0
  4  6  1  0
  9 12  1  0
 21 22  1  0
M  END
>  <MolRegNo>  (1) 
619911

>  <m>  (1) 
=

>  <Value>  (1) 
5200

>  <Unit>  (1) 
nM

>  <Type>  (1) 
IC50

>  <pValue>  (1) 
5.28

>  <Ligand Efficiency>  (1) 
0

>  <Binding Efficiency>  (1) 
0

>  <Surface Efficiency>  (1) 
0

>  <Assay Index>  (1) 
469728

>  <Assay Category>  (1) 


>  <Assay Organism>  (1) 


>  <Target ID>  (1) 
11365

>  <Target Name>  (1) 
Cytochrome P450 2D6

>  <Target Organism>  (1) 
Homo sapiens

>  <Target Description>  (1) 
Target is a single protein chain

>  <Sequence Accession>  (1) 
P10635

>  <Reference>  (1) 
Bioorg Med Chem Lett 20 (7), 2316-2320 (2010)

>  <Pubmed ID>  (1) 
20188547

>  <DOI>  (1) 
10.1016/j.bmcl.2010.01.134

$$$$
