4wnv_ligand_16
     RDKit          2D

 51 55  0  0  0  0  0  0  0  0999 V2000
    0.0000   -0.0000   -0.0000 S   0  0  0  0  0  0  0  0  0  0  0  0
    1.2784    0.7621   -0.0000 C   0  0  0  0  0  0  0  0  0  0  0  0
   -1.3030    0.7621   -0.0000 C   0  0  0  0  0  0  0  0  0  0  0  0
    1.2661    2.2741   -0.0000 N   0  0  0  0  0  0  0  0  0  0  0  0
    2.5815    0.0246   -0.0000 N   0  0  0  0  0  0  0  0  0  0  0  0
   -2.6060    0.0123   -0.0000 C   0  0  0  0  0  0  0  0  0  0  0  0
    2.5446    3.0363   -0.0000 C   0  0  0  0  0  0  0  0  0  0  0  0
    3.8599    0.7867   -0.0000 C   0  0  0  0  0  0  0  0  0  0  0  0
    2.5692   -1.4628   -0.0000 C   0  0  0  0  0  0  0  0  0  0  0  0
   -2.6183   -1.4874   -0.0000 C   0  0  0  0  0  0  0  0  0  0  0  0
   -3.9214    0.7744   -0.0000 C   0  0  0  0  0  0  0  0  0  0  0  0
    2.5323    4.5483   -0.0000 O   0  0  0  0  0  0  0  0  0  0  0  0
    3.8476    2.2987   -0.0000 C   0  0  0  0  0  0  0  0  0  0  0  0
    3.8599   -2.2004   -0.0000 C   0  0  0  0  0  0  0  0  0  0  0  0
   -3.9336   -2.2250   -0.0000 C   0  0  0  0  0  0  0  0  0  0  0  0
   -5.2244    0.0369   -0.0000 C   0  0  0  0  0  0  0  0  0  0  0  0
    5.1383    3.0609   -0.0000 C   0  0  0  0  0  0  0  0  0  0  0  0
    5.1383   -1.4382   -0.0000 O   0  0  0  0  0  0  0  0  0  0  0  0
    3.8476   -3.6878   -0.0000 N   0  0  0  0  0  0  0  0  0  0  0  0
   -5.2367   -1.4628   -0.0000 C   0  0  0  0  0  0  0  0  0  0  0  0
    5.1260    4.5729   -0.0000 C   0  0  0  0  0  0  0  0  0  0  0  0
    5.1260   -4.4254   -0.0000 C   0  0  0  0  0  0  0  0  0  0  0  0
    2.5446   -4.4254   -0.0000 C   0  0  0  0  0  0  0  0  0  0  0  0
   -6.5643   -2.2004   -0.0000 F   0  0  0  0  0  0  0  0  0  0  0  0
    3.8845    5.4702   -0.0000 C   0  0  0  0  0  0  0  0  0  0  0  0
    6.3184    5.4702   -0.0000 C   0  0  0  0  0  0  0  0  0  0  0  0
    6.4045   -3.6632   -0.0000 C   0  0  0  0  0  0  0  0  0  0  0  0
    1.2293   -3.6632   -0.0000 C   0  0  0  0  0  0  0  0  0  0  0  0
    4.3516    6.8962   -0.0000 N   0  0  0  0  0  0  0  0  0  0  0  0
    5.8513    6.8962   -0.0000 N   0  0  0  0  0  0  0  0  0  0  0  0
    7.6829   -4.4008   -0.0000 C   0  0  0  0  0  0  0  0  0  0  0  0
    6.3922   -2.1512   -0.0000 C   0  0  0  0  0  0  0  0  0  0  0  0
   -0.0738   -4.4008   -0.0000 N   0  0  0  0  0  0  0  0  0  0  0  0
    6.8962    7.9779   -0.0000 C   0  0  0  0  0  0  0  0  0  0  0  0
    8.9613   -3.6386   -0.0000 C   0  0  0  0  0  0  0  0  0  0  0  0
    7.6706   -1.3891   -0.0000 C   0  0  0  0  0  0  0  0  0  0  0  0
   -0.0860   -5.8882   -0.0000 C   0  0  0  0  0  0  0  0  0  0  0  0
   -1.4014   -3.6386   -0.0000 C   0  0  0  0  0  0  0  0  0  0  0  0
    8.9491   -2.1266   -0.0000 C   0  0  0  0  0  0  0  0  0  0  0  0
   -1.4137   -6.6257   -0.0000 C   0  0  0  0  0  0  0  0  0  0  0  0
   -2.7044   -4.3762   -0.0000 C   0  0  0  0  0  0  0  0  0  0  0  0
   10.2275   -1.3645   -0.0000 C   0  0  0  0  0  0  0  0  0  0  0  0
   10.2152    0.1475   -0.0000 C   0  0  0  0  0  0  0  0  0  0  0  0
   11.5059   -2.1020   -0.0000 C   0  0  0  0  0  0  0  0  0  0  0  0
   11.4936    0.9097   -0.0000 C   0  0  0  0  0  0  0  0  0  0  0  0
   12.8089   -1.3399   -0.0000 C   0  0  0  0  0  0  0  0  0  0  0  0
   12.7844    0.1721   -0.0000 C   0  0  0  0  0  0  0  0  0  0  0  0
   14.0628    0.9465   -0.0000 C   0  0  0  0  0  0  0  0  0  0  0  0
   15.2306    1.6595   -0.0000 F   0  0  0  0  0  0  0  0  0  0  0  0
   15.5256    0.4180   -0.0000 F   0  0  0  0  0  0  0  0  0  0  0  0
   14.2964    2.5200   -0.0000 F   0  0  0  0  0  0  0  0  0  0  0  0
  1  2  1  0
  1  3  1  0
  2  4  2  0
  2  5  1  0
  3  6  1  0
  4  7  1  0
  5  8  1  0
  5  9  1  0
  6 10  2  0
  6 11  1  0
  7 12  2  0
  7 13  1  0
  9 14  1  0
 10 15  1  0
 11 16  2  0
 13 17  1  0
 14 18  2  0
 14 19  1  0
 15 20  2  0
 17 21  1  0
 19 22  1  0
 19 23  1  0
 20 24  1  0
 21 25  1  0
 21 26  2  0
 22 27  1  0
 23 28  1  0
 25 29  2  0
 26 30  1  0
 27 31  2  0
 27 32  1  0
 28 33  1  0
 30 34  1  0
 31 35  1  0
 32 36  2  0
 33 37  1  0
 33 38  1  0
 35 39  2  0
 37 40  1  0
 38 41  1  0
 39 42  1  0
 42 43  2  0
 42 44  1  0
 43 45  1  0
 44 46  2  0
 45 47  2  0
 47 48  1  0
 48 49  1  0
 48 50  1  0
 48 51  1  0
  8 13  2  0
 16 20  1  0
 29 30  1  0
 36 39  1  0
 46 47  1  0
M  END
>  <MolRegNo>  (1) 
7755

>  <m>  (1) 
=

>  <Value>  (1) 
37000

>  <Unit>  (1) 
nM

>  <Type>  (1) 
IC50

>  <pValue>  (1) 
4.43

>  <Ligand Efficiency>  (1) 
0

>  <Binding Efficiency>  (1) 
0

>  <Surface Efficiency>  (1) 
0

>  <Assay Index>  (1) 
51652

>  <Assay Category>  (1) 


>  <Assay Organism>  (1) 


>  <Target ID>  (1) 
11365

>  <Target Name>  (1) 
Cytochrome P450 2D6

>  <Target Organism>  (1) 
Homo sapiens

>  <Target Description>  (1) 
Target is a single protein chain

>  <Sequence Accession>  (1) 
P10635

>  <Reference>  (1) 
Bioorg Med Chem Lett 13 (6), 1067-1070 (2003)

>  <Pubmed ID>  (1) 
12643913

>  <DOI>  (1) 
10.1016/s0960-894x(03)00058-1

$$$$
