4wnv_ligand_1022
     RDKit          2D

 18 19  0  0  0  0  0  0  0  0999 V2000
    0.0000   -0.0000   -0.0000 S   0  0  0  0  0  0  0  0  0  0  0  0
    1.2869    0.7674   -0.0000 C   0  0  0  0  0  0  0  0  0  0  0  0
   -1.3105    0.7556   -0.0000 C   0  0  0  0  0  0  0  0  0  0  0  0
    2.5619    0.0236   -0.0000 C   0  0  0  0  0  0  0  0  0  0  0  0
    1.2633    2.2786   -0.0000 C   0  0  0  0  0  0  0  0  0  0  0  0
   -2.6210    0.0118   -0.0000 C   0  0  0  0  0  0  0  0  0  0  0  0
    3.8370    0.7792   -0.0000 C   0  0  0  0  0  0  0  0  0  0  0  0
    2.5501    3.0342   -0.0000 C   0  0  0  0  0  0  0  0  0  0  0  0
   -3.9314    0.7674   -0.0000 C   0  0  0  0  0  0  0  0  0  0  0  0
    3.8252    2.2904   -0.0000 C   0  0  0  0  0  0  0  0  0  0  0  0
   -5.3128    0.1653   -0.0000 N   0  0  0  0  0  0  0  0  0  0  0  0
   -4.1085    2.2668   -0.0000 C   0  0  0  0  0  0  0  0  0  0  0  0
    5.1121    3.0460   -0.0000 C   0  0  0  0  0  0  0  0  0  0  0  0
   -6.3281    1.2869   -0.0000 C   0  0  0  0  0  0  0  0  0  0  0  0
   -5.5843    2.5855   -0.0000 N   0  0  0  0  0  0  0  0  0  0  0  0
    6.3989    2.3022   -0.0000 C   0  0  0  0  0  0  0  0  0  0  0  0
    5.1003    4.5572   -0.0000 C   0  0  0  0  0  0  0  0  0  0  0  0
    6.3871    3.8252   -0.0000 C   0  0  0  0  0  0  0  0  0  0  0  0
  1  2  1  0
  1  3  1  0
  2  4  2  0
  2  5  1  0
  3  6  1  0
  4  7  1  0
  5  8  2  0
  6  9  1  0
  7 10  2  0
  9 11  1  0
  9 12  2  0
 10 13  1  0
 11 14  2  0
 12 15  1  0
 13 16  1  0
 13 17  1  0
 13 18  1  0
  8 10  1  0
 14 15  1  0
M  END
>  <MolRegNo>  (1) 
627260

>  <m>  (1) 
=

>  <Value>  (1) 
680

>  <Unit>  (1) 
nM

>  <Type>  (1) 
IC50

>  <pValue>  (1) 
6.17

>  <Ligand Efficiency>  (1) 
0

>  <Binding Efficiency>  (1) 
0

>  <Surface Efficiency>  (1) 
0

>  <Assay Index>  (1) 
475582

>  <Assay Category>  (1) 


>  <Assay Organism>  (1) 
Homo sapiens

>  <Target ID>  (1) 
11365

>  <Target Name>  (1) 
Cytochrome P450 2D6

>  <Target Organism>  (1) 
Homo sapiens

>  <Target Description>  (1) 
Target is a single protein chain

>  <Sequence Accession>  (1) 
P10635

>  <Reference>  (1) 
J Med Chem 53 (9), 3840-3844 (2010)

>  <Pubmed ID>  (1) 
20384344

>  <DOI>  (1) 
10.1021/jm901890s

$$$$
