4wnv_ligand_115
     RDKit          2D

 21 22  0  0  1  0  0  0  0  0999 V2000
    0.0000   -0.0000   -0.0000 S   0  0  0  0  0  0  0  0  0  0  0  0
    1.1824   -0.8325   -0.0000 N   0  0  0  0  0  0  0  0  0  0  0  0
   -1.2427   -0.8325   -0.0000 N   0  0  0  0  0  0  0  0  0  0  0  0
    0.6998   -2.2682   -0.0000 C   0  0  0  0  0  0  0  0  0  0  0  0
   -0.7842   -2.2682   -0.0000 C   0  0  0  0  0  0  0  0  0  0  0  0
    1.9183   -2.8594   -0.0000 O   0  0  0  0  0  0  0  0  0  0  0  0
   -2.3285   -2.9197   -0.0000 N   0  0  0  0  0  0  0  0  0  0  0  0
    3.2576   -2.1596   -0.0000 C   0  0  0  0  0  0  0  0  0  0  0  0
   -3.5954   -2.1114   -0.0000 C   0  0  0  0  0  0  0  0  0  0  0  0
   -2.3889   -4.3917   -0.0000 C   0  0  0  0  0  0  0  0  0  0  0  0
    4.5968   -2.8111   -0.0000 C   0  0  0  0  0  0  0  0  0  0  0  0
   -4.9225   -2.7991   -0.0000 C   0  0  0  0  0  0  0  0  0  0  0  0
   -3.7281   -5.0673   -0.0000 C   0  0  0  0  0  0  0  0  0  0  0  0
    4.5847   -4.2228   -0.0000 O   0  0  0  0  0  0  0  0  0  0  0  0
    6.0928   -2.1958   -0.0000 C   0  0  0  0  0  0  0  0  0  0  0  0
   -5.0070   -4.2710   -0.0000 O   0  0  0  0  0  0  0  0  0  0  0  0
    7.3476   -2.9801   -0.0000 N   0  0  0  0  0  0  0  0  0  0  0  0
    8.8436   -2.2320   -0.0000 C   0  0  0  0  0  0  0  0  0  0  0  0
   10.0984   -2.7991   -0.0000 C   0  0  0  0  0  0  0  0  0  0  0  0
    9.5675   -0.9290   -0.0000 C   0  0  0  0  0  0  0  0  0  0  0  0
    8.0594   -0.9290   -0.0000 C   0  0  0  0  0  0  0  0  0  0  0  0
  1  2  1  0
  1  3  1  0
  2  4  2  0
  3  5  2  0
  4  6  1  0
  5  7  1  0
  6  8  1  0
  7  9  1  0
  7 10  1  0
  8 11  1  0
  9 12  1  0
 10 13  1  0
 11 14  1  6
 11 15  1  0
 12 16  1  0
 15 17  1  0
 17 18  1  0
 18 19  1  0
 18 20  1  0
 18 21  1  0
  4  5  1  0
 13 16  1  0
M  END
>  <MolRegNo>  (1) 
8531

>  <m>  (1) 
=

>  <Value>  (1) 
11000

>  <Unit>  (1) 
nM

>  <Type>  (1) 
IC50

>  <pValue>  (1) 
4.96

>  <Ligand Efficiency>  (1) 
0

>  <Binding Efficiency>  (1) 
0

>  <Surface Efficiency>  (1) 
0

>  <Assay Index>  (1) 
238811

>  <Assay Category>  (1) 


>  <Assay Organism>  (1) 
Homo sapiens

>  <Target ID>  (1) 
11365

>  <Target Name>  (1) 
Cytochrome P450 2D6

>  <Target Organism>  (1) 
Homo sapiens

>  <Target Description>  (1) 
Target is a single protein chain

>  <Sequence Accession>  (1) 
P10635

>  <Reference>  (1) 
Bioorg Med Chem Lett 15 (17), 3816-3820 (2005)

>  <Pubmed ID>  (1) 
15993593

>  <DOI>  (1) 
10.1016/j.bmcl.2005.06.007

$$$$
