4wnv_ligand_206
     RDKit          2D

 33 36  0  0  1  0  0  0  0  0999 V2000
    0.0000   -0.0000   -0.0000 O   0  0  0  0  0  0  0  0  0  0  0  0
    1.2882    0.7634   -0.0000 C   0  0  0  0  0  0  0  0  0  0  0  0
    2.5764    0.0239   -0.0000 O   0  0  0  0  0  0  0  0  0  0  0  0
    1.2763    2.2782   -0.0000 N   0  0  0  0  0  0  0  0  0  0  0  0
    2.5645   -1.4671   -0.0000 C   0  0  0  0  0  0  0  0  0  0  0  0
    2.5645    3.0416   -0.0000 C   0  0  0  0  0  0  0  0  0  0  0  0
    3.8408    2.3021   -0.0000 C   0  0  0  0  0  0  0  0  0  0  0  0
    2.5526    4.5565   -0.0000 C   0  0  0  0  0  0  0  0  0  0  0  0
    5.1171    3.0536   -0.0000 C   0  0  0  0  0  0  0  0  0  0  0  0
    3.8408    5.3079   -0.0000 C   0  0  0  0  0  0  0  0  0  0  0  0
    5.1171    4.5684   -0.0000 C   0  0  0  0  0  0  0  0  0  0  0  0
    6.4053    2.3140   -0.0000 C   0  0  0  0  0  0  0  0  0  0  0  0
    6.4053    5.3318   -0.0000 O   0  0  0  0  0  0  0  0  0  0  0  0
    7.7055    3.0774   -0.0000 C   0  0  0  0  0  0  0  0  0  0  0  0
    7.7055    4.5923   -0.0000 C   0  0  0  0  0  0  0  0  0  0  0  0
    8.9937    5.3556   -0.0000 C   0  0  0  0  0  0  0  0  0  0  0  0
    8.9817    6.8705   -0.0000 O   0  0  0  0  0  0  0  0  0  0  0  0
   10.2819    4.6161   -0.0000 N   0  0  0  0  0  0  0  0  0  0  0  0
   11.5701    5.3795   -0.0000 C   0  0  0  0  0  0  0  0  0  0  0  0
   10.2700    3.1251   -0.0000 C   0  0  0  0  0  0  0  0  0  0  0  0
   11.5582    6.8944   -0.0000 C   0  0  0  0  0  0  0  0  0  0  0  0
   12.8583    4.6400   -0.0000 C   0  0  0  0  0  0  0  0  0  0  0  0
   10.2461    7.6577   -0.0000 C   0  0  0  0  0  0  0  0  0  0  0  0
   12.8583    7.6577   -0.0000 C   0  0  0  0  0  0  0  0  0  0  0  0
   14.1465    5.4034   -0.0000 N   0  0  0  0  0  0  0  0  0  0  0  0
   10.2342    9.1726   -0.0000 C   0  0  0  0  0  0  0  0  0  0  0  0
   12.8464    9.1845   -0.0000 C   0  0  0  0  0  0  0  0  0  0  0  0
   15.5063    4.8070   -0.0000 C   0  0  0  0  0  0  0  0  0  0  0  0
   14.2897    6.9182   -0.0000 C   0  0  0  0  0  0  0  0  0  0  0  0
   11.5224    9.9360   -0.0000 C   0  0  0  0  0  0  0  0  0  0  0  0
   16.4964    5.9401   -0.0000 C   0  0  0  0  0  0  0  0  0  0  0  0
   15.7449    7.2403   -0.0000 C   0  0  0  0  0  0  0  0  0  0  0  0
   17.9754    5.7970   -0.0000 O   0  0  0  0  0  0  0  0  0  0  0  0
  1  2  2  0
  2  3  1  0
  2  4  1  0
  3  5  1  0
  4  6  1  0
  6  7  2  0
  6  8  1  0
  7  9  1  0
  8 10  2  0
  9 11  2  0
  9 12  1  0
 11 13  1  0
 12 14  1  0
 13 15  1  0
 15 16  1  0
 16 17  2  0
 16 18  1  0
 19 18  1  0
 18 20  1  0
 19 21  1  0
 19 22  1  1
 21 23  2  0
 21 24  1  0
 22 25  1  0
 23 26  1  0
 24 27  2  0
 25 28  1  0
 25 29  1  0
 26 30  2  0
 28 31  1  0
 29 32  1  0
 31 33  1  6
 10 11  1  0
 14 15  1  0
 27 30  1  0
 31 32  1  0
M  END
>  <MolRegNo>  (1) 
332126

>  <m>  (1) 
=

>  <Value>  (1) 
7400

>  <Unit>  (1) 
nM

>  <Type>  (1) 
IC50

>  <pValue>  (1) 
5.13

>  <Ligand Efficiency>  (1) 
0

>  <Binding Efficiency>  (1) 
0

>  <Surface Efficiency>  (1) 
0

>  <Assay Index>  (1) 
253815

>  <Assay Category>  (1) 


>  <Assay Organism>  (1) 
Homo sapiens

>  <Target ID>  (1) 
11365

>  <Target Name>  (1) 
Cytochrome P450 2D6

>  <Target Organism>  (1) 
Homo sapiens

>  <Target Description>  (1) 
Target is a single protein chain

>  <Sequence Accession>  (1) 
P10635

>  <Reference>  (1) 
Bioorg Med Chem Lett 15 (23), 5114-5119 (2005)

>  <Pubmed ID>  (1) 
16203140

>  <DOI>  (1) 
10.1016/j.bmcl.2005.08.094

$$$$
