4wnv_ligand_1032
     RDKit          2D

 31 34  0  0  0  0  0  0  0  0999 V2000
    0.0000   -0.0000   -0.0000 O   0  0  0  0  0  0  0  0  0  0  0  0
   -1.3180   -0.7362   -0.0000 C   0  0  0  0  0  0  0  0  0  0  0  0
    1.2943   -0.7362   -0.0000 C   0  0  0  0  0  0  0  0  0  0  0  0
   -2.6360    0.0237   -0.0000 C   0  0  0  0  0  0  0  0  0  0  0  0
   -1.3299   -2.2323   -0.0000 C   0  0  0  0  0  0  0  0  0  0  0  0
    2.5885    0.0237   -0.0000 C   0  0  0  0  0  0  0  0  0  0  0  0
   -2.6360    1.5436   -0.0000 C   0  0  0  0  0  0  0  0  0  0  0  0
   -3.9421   -0.7124   -0.0000 C   0  0  0  0  0  0  0  0  0  0  0  0
   -2.0898   -3.5147   -0.0000 C   0  0  0  0  0  0  0  0  0  0  0  0
   -0.5818   -3.5147   -0.0000 C   0  0  0  0  0  0  0  0  0  0  0  0
    2.5766    1.5436   -0.0000 O   0  0  0  0  0  0  0  0  0  0  0  0
    3.8828   -0.7124   -0.0000 C   0  0  0  0  0  0  0  0  0  0  0  0
   -3.9540    2.3035   -0.0000 C   0  0  0  0  0  0  0  0  0  0  0  0
   -1.3418    2.3035   -0.0000 C   0  0  0  0  0  0  0  0  0  0  0  0
   -5.2601    0.0475   -0.0000 C   0  0  0  0  0  0  0  0  0  0  0  0
    5.1770    0.0475   -0.0000 N   0  0  0  0  0  0  0  0  0  0  0  0
   -5.2720    1.5674   -0.0000 C   0  0  0  0  0  0  0  0  0  0  0  0
    6.4713   -0.6887   -0.0000 C   0  0  0  0  0  0  0  0  0  0  0  0
    7.7655    0.0712   -0.0000 C   0  0  0  0  0  0  0  0  0  0  0  0
    5.3789   -1.7336   -0.0000 C   0  0  0  0  0  0  0  0  0  0  0  0
    7.5162   -1.7336   -0.0000 C   0  0  0  0  0  0  0  0  0  0  0  0
    9.0598   -0.6649   -0.0000 C   0  0  0  0  0  0  0  0  0  0  0  0
   10.3422    0.0950   -0.0000 C   0  0  0  0  0  0  0  0  0  0  0  0
    9.0479   -2.1611   -0.0000 C   0  0  0  0  0  0  0  0  0  0  0  0
   11.6364   -0.6412   -0.0000 C   0  0  0  0  0  0  0  0  0  0  0  0
   10.3422   -2.8972   -0.0000 C   0  0  0  0  0  0  0  0  0  0  0  0
   11.6246   -2.1373   -0.0000 C   0  0  0  0  0  0  0  0  0  0  0  0
   12.9188    0.1306   -0.0000 C   0  0  0  0  0  0  0  0  0  0  0  0
   12.9188   -2.8735   -0.0000 C   0  0  0  0  0  0  0  0  0  0  0  0
   14.2131   -0.6056   -0.0000 C   0  0  0  0  0  0  0  0  0  0  0  0
   14.2131   -2.1017   -0.0000 C   0  0  0  0  0  0  0  0  0  0  0  0
  2  1  1  1
  1  3  1  0
  2  4  1  0
  2  5  1  0
  3  6  1  0
  4  7  2  0
  4  8  1  0
  5  9  1  0
  5 10  1  0
  6 11  1  1
  6 12  1  0
  7 13  1  0
  7 14  1  0
  8 15  2  0
 12 16  1  0
 13 17  2  0
 16 18  1  0
 18 19  1  0
 18 20  1  0
 18 21  1  0
 19 22  1  0
 22 23  2  0
 22 24  1  0
 23 25  1  0
 24 26  2  0
 25 27  2  0
 25 28  1  0
 27 29  1  0
 28 30  2  0
 29 31  2  0
  9 10  1  0
 15 17  1  0
 26 27  1  0
 30 31  1  0
M  END
>  <MolRegNo>  (1) 
632733

>  <m>  (1) 
=

>  <Value>  (1) 
500

>  <Unit>  (1) 
nM

>  <Type>  (1) 
IC50

>  <pValue>  (1) 
6.3

>  <Ligand Efficiency>  (1) 
0

>  <Binding Efficiency>  (1) 
0

>  <Surface Efficiency>  (1) 
0

>  <Assay Index>  (1) 
480488

>  <Assay Category>  (1) 


>  <Assay Organism>  (1) 


>  <Target ID>  (1) 
11365

>  <Target Name>  (1) 
Cytochrome P450 2D6

>  <Target Organism>  (1) 
Homo sapiens

>  <Target Description>  (1) 
Target is a single protein chain

>  <Sequence Accession>  (1) 
P10635

>  <Reference>  (1) 
Bioorg Med Chem Lett 20 (12), 3809-3813 (2010)

>  <Pubmed ID>  (1) 
20472433

>  <DOI>  (1) 
10.1016/j.bmcl.2010.04.035

$$$$
