4wnv_ligand_1072
     RDKit          2D

 22 24  0  0  0  0  0  0  0  0999 V2000
    0.0000   -0.0000   -0.0000 F   0  0  0  0  0  0  0  0  0  0  0  0
   -0.0118    1.4981   -0.0000 C   0  0  0  0  0  0  0  0  0  0  0  0
    1.2740    2.2649   -0.0000 C   0  0  0  0  0  0  0  0  0  0  0  0
   -1.3212    2.2531   -0.0000 C   0  0  0  0  0  0  0  0  0  0  0  0
    2.6896    1.8284   -0.0000 N   0  0  0  0  0  0  0  0  0  0  0  0
    1.2504    3.7748   -0.0000 C   0  0  0  0  0  0  0  0  0  0  0  0
   -1.3330    3.7630   -0.0000 C   0  0  0  0  0  0  0  0  0  0  0  0
    3.5507    3.0552   -0.0000 C   0  0  0  0  0  0  0  0  0  0  0  0
   -0.0590    4.5298   -0.0000 C   0  0  0  0  0  0  0  0  0  0  0  0
    2.6660    4.2585   -0.0000 C   0  0  0  0  0  0  0  0  0  0  0  0
   -2.6424    4.5180   -0.0000 C   0  0  0  0  0  0  0  0  0  0  0  0
   -2.6542    6.0161   -0.0000 O   0  0  0  0  0  0  0  0  0  0  0  0
   -3.9400    3.7866   -0.0000 C   0  0  0  0  0  0  0  0  0  0  0  0
   -4.1051    2.3121   -0.0000 C   0  0  0  0  0  0  0  0  0  0  0  0
   -5.3201    4.4000   -0.0000 C   0  0  0  0  0  0  0  0  0  0  0  0
   -4.3528    5.2493   -0.0000 C   0  0  0  0  0  0  0  0  0  0  0  0
   -5.5796    2.0172   -0.0000 N   0  0  0  0  0  0  0  0  0  0  0  0
   -6.3346    3.3030   -0.0000 C   0  0  0  0  0  0  0  0  0  0  0  0
   -5.8038    5.6386   -0.0000 C   0  0  0  0  0  0  0  0  0  0  0  0
   -6.2048    7.0896   -0.0000 C   0  0  0  0  0  0  0  0  0  0  0  0
   -7.6558    7.4788   -0.0000 C   0  0  0  0  0  0  0  0  0  0  0  0
   -5.1668    8.1630   -0.0000 C   0  0  0  0  0  0  0  0  0  0  0  0
  1  2  1  0
  2  3  2  0
  2  4  1  0
  3  5  1  0
  3  6  1  0
  4  7  2  0
  5  8  1  0
  6  9  2  0
  6 10  1  0
  7 11  1  0
 11 12  2  0
 11 13  1  0
 13 14  1  0
 13 15  1  0
 13 16  1  0
 14 17  1  0
 15 18  1  0
 16 19  1  0
 19 20  1  0
 20 21  1  0
 20 22  1  0
  7  9  1  0
  8 10  2  0
 17 18  1  0
M  END
>  <MolRegNo>  (1) 
690775

>  <m>  (1) 
=

>  <Value>  (1) 
50

>  <Unit>  (1) 
nM

>  <Type>  (1) 
IC50

>  <pValue>  (1) 
7.3

>  <Ligand Efficiency>  (1) 
0

>  <Binding Efficiency>  (1) 
0

>  <Surface Efficiency>  (1) 
0

>  <Assay Index>  (1) 
497257

>  <Assay Category>  (1) 


>  <Assay Organism>  (1) 


>  <Target ID>  (1) 
11365

>  <Target Name>  (1) 
Cytochrome P450 2D6

>  <Target Organism>  (1) 
Homo sapiens

>  <Target Description>  (1) 
Target is a single protein chain

>  <Sequence Accession>  (1) 
P10635

>  <Reference>  (1) 
Bioorg Med Chem Lett 20 (18), 5559-5566 (2010)

>  <Pubmed ID>  (1) 
20691589

>  <DOI>  (1) 
10.1016/j.bmcl.2010.07.020

$$$$
