4wnv_ligand_659
     RDKit          2D

 36 40  0  0  0  0  0  0  0  0999 V2000
    0.0000   -0.0000   -0.0000 Cl  0  0  0  0  0  0  0  0  0  0  0  0
    1.2918   -0.7348   -0.0000 C   0  0  0  0  0  0  0  0  0  0  0  0
    2.5836    0.0237   -0.0000 C   0  0  0  0  0  0  0  0  0  0  0  0
    1.2800   -2.2281   -0.0000 C   0  0  0  0  0  0  0  0  0  0  0  0
    3.8754   -0.7111   -0.0000 C   0  0  0  0  0  0  0  0  0  0  0  0
    2.5718   -2.9747   -0.0000 C   0  0  0  0  0  0  0  0  0  0  0  0
    5.1673    0.0474   -0.0000 F   0  0  0  0  0  0  0  0  0  0  0  0
    3.8636   -2.2044   -0.0000 C   0  0  0  0  0  0  0  0  0  0  0  0
    5.1554   -2.9510   -0.0000 C   0  0  0  0  0  0  0  0  0  0  0  0
    6.4472   -2.1925   -0.0000 N   0  0  0  0  0  0  0  0  0  0  0  0
    5.1436   -4.4443   -0.0000 C   0  0  0  0  0  0  0  0  0  0  0  0
    7.7390   -2.9392   -0.0000 C   0  0  0  0  0  0  0  0  0  0  0  0
    6.4354   -5.1791   -0.0000 C   0  0  0  0  0  0  0  0  0  0  0  0
    3.8280   -5.1791   -0.0000 C   0  0  0  0  0  0  0  0  0  0  0  0
    7.7272   -4.4325   -0.0000 N   0  0  0  0  0  0  0  0  0  0  0  0
    9.0308   -2.1807   -0.0000 C   0  0  0  0  0  0  0  0  0  0  0  0
    6.4235   -6.6724   -0.0000 C   0  0  0  0  0  0  0  0  0  0  0  0
    2.5125   -4.4206   -0.0000 O   0  0  0  0  0  0  0  0  0  0  0  0
    3.8162   -6.6724   -0.0000 N   0  0  0  0  0  0  0  0  0  0  0  0
   10.3227   -2.9273   -0.0000 C   0  0  0  0  0  0  0  0  0  0  0  0
    9.0190   -0.6637   -0.0000 C   0  0  0  0  0  0  0  0  0  0  0  0
    2.5007   -7.4072   -0.0000 C   0  0  0  0  0  0  0  0  0  0  0  0
   11.6145   -2.1688   -0.0000 C   0  0  0  0  0  0  0  0  0  0  0  0
   10.3108    0.0948   -0.0000 C   0  0  0  0  0  0  0  0  0  0  0  0
    2.4888   -8.9005   -0.0000 C   0  0  0  0  0  0  0  0  0  0  0  0
    1.1852   -6.6487   -0.0000 C   0  0  0  0  0  0  0  0  0  0  0  0
   12.9063   -2.9155   -0.0000 O   0  0  0  0  0  0  0  0  0  0  0  0
   11.6026   -0.6518   -0.0000 N   0  0  0  0  0  0  0  0  0  0  0  0
    3.7806   -9.6471   -0.0000 F   0  0  0  0  0  0  0  0  0  0  0  0
    1.1733   -9.6471   -0.0000 C   0  0  0  0  0  0  0  0  0  0  0  0
   -0.1304   -7.3835   -0.0000 C   0  0  0  0  0  0  0  0  0  0  0  0
   12.8944   -4.4088   -0.0000 C   0  0  0  0  0  0  0  0  0  0  0  0
   -0.1422   -8.8768   -0.0000 C   0  0  0  0  0  0  0  0  0  0  0  0
   -1.5762   -6.9094   -0.0000 C   0  0  0  0  0  0  0  0  0  0  0  0
   -1.5881   -9.3271   -0.0000 N   0  0  0  0  0  0  0  0  0  0  0  0
   -2.4770   -8.1183   -0.0000 N   0  0  0  0  0  0  0  0  0  0  0  0
  1  2  1  0
  2  3  2  0
  2  4  1  0
  3  5  1  0
  4  6  2  0
  5  7  1  0
  5  8  2  0
  8  9  1  0
  9 10  1  0
  9 11  1  0
 10 12  2  0
 11 13  2  0
 11 14  1  0
 12 15  1  0
 12 16  1  0
 13 17  1  0
 14 18  2  0
 14 19  1  0
 16 20  2  0
 16 21  1  0
 19 22  1  0
 20 23  1  0
 21 24  2  0
 22 25  2  0
 22 26  1  0
 23 27  1  0
 23 28  2  0
 25 29  1  0
 25 30  1  0
 26 31  2  0
 27 32  1  0
 30 33  2  0
 31 34  1  0
 33 35  1  0
 34 36  2  0
  6  8  1  0
 13 15  1  0
 24 28  1  0
 31 33  1  0
 35 36  1  0
M  END
>  <MolRegNo>  (1) 
513873

>  <m>  (1) 
=

>  <Value>  (1) 
2100

>  <Unit>  (1) 
nM

>  <Type>  (1) 
IC50

>  <pValue>  (1) 
5.68

>  <Ligand Efficiency>  (1) 
0

>  <Binding Efficiency>  (1) 
0

>  <Surface Efficiency>  (1) 
0

>  <Assay Index>  (1) 
386364

>  <Assay Category>  (1) 


>  <Assay Organism>  (1) 


>  <Target ID>  (1) 
11365

>  <Target Name>  (1) 
Cytochrome P450 2D6

>  <Target Organism>  (1) 
Homo sapiens

>  <Target Description>  (1) 
Target is a single protein chain

>  <Sequence Accession>  (1) 
P10635

>  <Reference>  (1) 
J Med Chem 51 (21), 6631-6634 (2008)

>  <Pubmed ID>  (1) 
18842034

>  <DOI>  (1) 
10.1021/jm8005096

$$$$
