4wnv_ligand_530
     RDKit          2D

 34 38  0  0  0  0  0  0  0  0999 V2000
    0.0000   -0.0000   -0.0000 O   0  0  0  0  0  0  0  0  0  0  0  0
    1.2964   -0.7255   -0.0000 C   0  0  0  0  0  0  0  0  0  0  0  0
    2.5809    0.0476   -0.0000 N   0  0  0  0  0  0  0  0  0  0  0  0
    1.2964   -2.2122   -0.0000 C   0  0  0  0  0  0  0  0  0  0  0  0
    2.5571    1.5581   -0.0000 C   0  0  0  0  0  0  0  0  0  0  0  0
   -0.0119   -2.9496   -0.0000 C   0  0  0  0  0  0  0  0  0  0  0  0
    2.5928   -2.9377   -0.0000 C   0  0  0  0  0  0  0  0  0  0  0  0
    3.8416    2.3192   -0.0000 C   0  0  0  0  0  0  0  0  0  0  0  0
    1.2488    2.2955   -0.0000 C   0  0  0  0  0  0  0  0  0  0  0  0
   -0.0238   -4.4482   -0.0000 C   0  0  0  0  0  0  0  0  0  0  0  0
   -1.3321   -2.1884   -0.0000 C   0  0  0  0  0  0  0  0  0  0  0  0
    2.5928   -4.4363   -0.0000 C   0  0  0  0  0  0  0  0  0  0  0  0
    3.8178    3.8297   -0.0000 C   0  0  0  0  0  0  0  0  0  0  0  0
    1.2250    3.8059   -0.0000 C   0  0  0  0  0  0  0  0  0  0  0  0
   -1.3440   -5.1975   -0.0000 C   0  0  0  0  0  0  0  0  0  0  0  0
    1.2607   -5.1856   -0.0000 C   0  0  0  0  0  0  0  0  0  0  0  0
   -2.6404   -2.9258   -0.0000 C   0  0  0  0  0  0  0  0  0  0  0  0
    2.4977    4.5909   -0.0000 N   0  0  0  0  0  0  0  0  0  0  0  0
   -2.6523   -4.4363   -0.0000 C   0  0  0  0  0  0  0  0  0  0  0  0
   -3.9606   -5.1737   -0.0000 O   0  0  0  0  0  0  0  0  0  0  0  0
   -3.9725   -6.6604   -0.0000 C   0  0  0  0  0  0  0  0  0  0  0  0
   -5.2807   -7.3978   -0.0000 C   0  0  0  0  0  0  0  0  0  0  0  0
   -2.6879   -7.3859   -0.0000 C   0  0  0  0  0  0  0  0  0  0  0  0
   -5.3045   -8.8726   -0.0000 C   0  0  0  0  0  0  0  0  0  0  0  0
   -6.5771   -6.6366   -0.0000 C   0  0  0  0  0  0  0  0  0  0  0  0
   -2.6998   -8.8726   -0.0000 C   0  0  0  0  0  0  0  0  0  0  0  0
   -4.0200   -9.6100   -0.0000 N   0  0  0  0  0  0  0  0  0  0  0  0
   -6.6009   -9.5981   -0.0000 C   0  0  0  0  0  0  0  0  0  0  0  0
   -7.8854   -7.3621   -0.0000 C   0  0  0  0  0  0  0  0  0  0  0  0
   -7.8973   -8.8488   -0.0000 C   0  0  0  0  0  0  0  0  0  0  0  0
   -9.1937   -6.6009   -0.0000 O   0  0  0  0  0  0  0  0  0  0  0  0
   -9.2056   -9.5862   -0.0000 O   0  0  0  0  0  0  0  0  0  0  0  0
  -10.5020   -7.3383   -0.0000 C   0  0  0  0  0  0  0  0  0  0  0  0
  -10.5139   -8.8250   -0.0000 C   0  0  0  0  0  0  0  0  0  0  0  0
  1  2  2  0
  2  3  1  0
  2  4  1  0
  3  5  1  0
  4  6  1  0
  4  7  2  0
  5  8  2  0
  5  9  1  0
  6 10  2  0
  6 11  1  0
  7 12  1  0
  8 13  1  0
  9 14  2  0
 10 15  1  0
 10 16  1  0
 11 17  2  0
 13 18  2  0
 15 19  2  0
 19 20  1  0
 20 21  1  0
 21 22  1  0
 21 23  2  0
 22 24  2  0
 22 25  1  0
 23 26  1  0
 24 27  1  0
 24 28  1  0
 25 29  2  0
 28 30  2  0
 29 31  1  0
 30 32  1  0
 31 33  1  0
 32 34  1  0
 12 16  2  0
 14 18  1  0
 17 19  1  0
 26 27  2  0
 29 30  1  0
M  END
>  <MolRegNo>  (1) 
440741

>  <m>  (1) 
=

>  <Value>  (1) 
700

>  <Unit>  (1) 
nM

>  <Type>  (1) 
IC50

>  <pValue>  (1) 
6.16

>  <Ligand Efficiency>  (1) 
0

>  <Binding Efficiency>  (1) 
0

>  <Surface Efficiency>  (1) 
0

>  <Assay Index>  (1) 
323726

>  <Assay Category>  (1) 


>  <Assay Organism>  (1) 


>  <Target ID>  (1) 
11365

>  <Target Name>  (1) 
Cytochrome P450 2D6

>  <Target Organism>  (1) 
Homo sapiens

>  <Target Description>  (1) 
Target is a single protein chain

>  <Sequence Accession>  (1) 
P10635

>  <Reference>  (1) 
J Med Chem 51 (6), 1649-1667 (2008)

>  <Pubmed ID>  (1) 
18324761

>  <DOI>  (1) 
10.1021/jm701097z

$$$$
