4wnv_ligand_292
     RDKit          2D

 24 25  0  0  0  0  0  0  0  0999 V2000
    0.0000   -0.0000   -0.0000 Cl  0  0  0  0  0  0  0  0  0  0  0  0
   -3.9072    2.3825   -0.0000 O   0  0  0  0  0  0  0  0  0  0  0  0
   -3.9191    0.8815   -0.0000 C   0  0  0  0  0  0  0  0  0  0  0  0
   -2.6088    3.1448   -0.0000 C   0  0  0  0  0  0  0  0  0  0  0  0
   -5.2414    0.1429   -0.0000 C   0  0  0  0  0  0  0  0  0  0  0  0
   -2.6207    0.1310   -0.0000 C   0  0  0  0  0  0  0  0  0  0  0  0
   -2.6207    4.3718   -0.0000 C   0  0  0  0  0  0  0  0  0  0  0  0
   -5.2533   -1.3580   -0.0000 C   0  0  0  0  0  0  0  0  0  0  0  0
   -6.5637    0.9053   -0.0000 C   0  0  0  0  0  0  0  0  0  0  0  0
   -2.6326   -1.3699   -0.0000 C   0  0  0  0  0  0  0  0  0  0  0  0
   -3.9549   -2.1085   -0.0000 C   0  0  0  0  0  0  0  0  0  0  0  0
   -7.8859    0.1549   -0.0000 C   0  0  0  0  0  0  0  0  0  0  0  0
   -7.8979   -1.3461   -0.0000 N   0  0  0  0  0  0  0  0  0  0  0  0
   -9.2082    0.9172   -0.0000 C   0  0  0  0  0  0  0  0  0  0  0  0
   -6.5994   -2.0847   -0.0000 C   0  0  0  0  0  0  0  0  0  0  0  0
   -9.2201   -2.0847   -0.0000 C   0  0  0  0  0  0  0  0  0  0  0  0
   -9.2201    2.4420   -0.0000 C   0  0  0  0  0  0  0  0  0  0  0  0
  -10.5305    0.1668   -0.0000 C   0  0  0  0  0  0  0  0  0  0  0  0
   -6.6113   -3.5856   -0.0000 C   0  0  0  0  0  0  0  0  0  0  0  0
   -9.2320   -3.5856   -0.0000 C   0  0  0  0  0  0  0  0  0  0  0  0
  -10.5424    3.2044   -0.0000 C   0  0  0  0  0  0  0  0  0  0  0  0
  -11.8527    0.9292   -0.0000 C   0  0  0  0  0  0  0  0  0  0  0  0
   -7.9336   -4.3242   -0.0000 N   0  0  0  0  0  0  0  0  0  0  0  0
  -11.8646    2.4539   -0.0000 C   0  0  0  0  0  0  0  0  0  0  0  0
  2  3  1  0
  2  4  1  0
  3  5  2  0
  3  6  1  0
  4  7  1  0
  5  8  1  0
  5  9  1  0
  6 10  2  0
  8 11  2  0
 12  9  1  6
 12 13  1  0
 12 14  1  0
 13 15  1  0
 13 16  1  0
 14 17  2  0
 14 18  1  0
 15 19  1  0
 16 20  1  0
 17 21  1  0
 18 22  2  0
 19 23  1  0
 21 24  2  0
 10 11  1  0
 20 23  1  0
 22 24  1  0
M  END
>  <MolRegNo>  (1) 
553098

>  <m>  (1) 
=

>  <Value>  (1) 
10000

>  <Unit>  (1) 
nM

>  <Type>  (1) 
IC50

>  <pValue>  (1) 
5

>  <Ligand Efficiency>  (1) 
0

>  <Binding Efficiency>  (1) 
0

>  <Surface Efficiency>  (1) 
0

>  <Assay Index>  (1) 
265641

>  <Assay Category>  (1) 


>  <Assay Organism>  (1) 
Homo sapiens

>  <Target ID>  (1) 
11365

>  <Target Name>  (1) 
Cytochrome P450 2D6

>  <Target Organism>  (1) 
Homo sapiens

>  <Target Description>  (1) 
Target is a single protein chain

>  <Sequence Accession>  (1) 
P10635

>  <Reference>  (1) 
Bioorg Med Chem Lett 16 (16), 4349-4353 (2006)

>  <Pubmed ID>  (1) 
16750363

>  <DOI>  (1) 
10.1016/j.bmcl.2006.05.049

$$$$
