4wnv_ligand_524
     RDKit          2D

 31 34  0  0  1  0  0  0  0  0999 V2000
    0.0000   -0.0000   -0.0000 F   0  0  0  0  0  0  0  0  0  0  0  0
   -0.0119    1.5091   -0.0000 C   0  0  0  0  0  0  0  0  0  0  0  0
   -1.3190    2.2696   -0.0000 C   0  0  0  0  0  0  0  0  0  0  0  0
    1.2714    2.2815   -0.0000 C   0  0  0  0  0  0  0  0  0  0  0  0
   -2.6261    1.5329   -0.0000 O   0  0  0  0  0  0  0  0  0  0  0  0
   -1.3427    3.7787   -0.0000 C   0  0  0  0  0  0  0  0  0  0  0  0
    1.2596    3.7905   -0.0000 C   0  0  0  0  0  0  0  0  0  0  0  0
    2.6736    1.8418   -0.0000 C   0  0  0  0  0  0  0  0  0  0  0  0
   -2.6379    0.0475   -0.0000 C   0  0  0  0  0  0  0  0  0  0  0  0
   -0.0594    4.5510   -0.0000 C   0  0  0  0  0  0  0  0  0  0  0  0
    2.6617    4.2658   -0.0000 N   0  0  0  0  0  0  0  0  0  0  0  0
    3.5410    3.0657   -0.0000 C   0  0  0  0  0  0  0  0  0  0  0  0
   -1.3427   -0.6773   -0.0000 N   0  0  0  0  0  0  0  0  0  0  0  0
   -3.9450   -0.6892   -0.0000 C   0  0  0  0  0  0  0  0  0  0  0  0
    5.0263    3.0776   -0.0000 C   0  0  0  0  0  0  0  0  0  0  0  0
   -1.3546   -2.1745   -0.0000 C   0  0  0  0  0  0  0  0  0  0  0  0
   -3.9569   -2.1864   -0.0000 N   0  0  0  0  0  0  0  0  0  0  0  0
   -5.3947   -0.2139   -0.0000 C   0  0  0  0  0  0  0  0  0  0  0  0
   -2.6736   -2.9112   -0.0000 N   0  0  0  0  0  0  0  0  0  0  0  0
   -5.3947   -2.6498   -0.0000 C   0  0  0  0  0  0  0  0  0  0  0  0
   -6.2859   -1.4259   -0.0000 C   0  0  0  0  0  0  0  0  0  0  0  0
   -5.8700    1.2239   -0.0000 C   0  0  0  0  0  0  0  0  0  0  0  0
   -7.7950   -1.4259   -0.0000 O   0  0  0  0  0  0  0  0  0  0  0  0
   -8.5555   -0.1188   -0.0000 C   0  0  0  0  0  0  0  0  0  0  0  0
  -10.0645   -0.1188   -0.0000 C   0  0  0  0  0  0  0  0  0  0  0  0
  -10.8250   -1.4021   -0.0000 O   0  0  0  0  0  0  0  0  0  0  0  0
  -10.8250    1.1883   -0.0000 C   0  0  0  0  0  0  0  0  0  0  0  0
  -10.0883   -2.6855   -0.0000 C   0  0  0  0  0  0  0  0  0  0  0  0
   -8.6030   -2.6736   -0.0000 O   0  0  0  0  0  0  0  0  0  0  0  0
  -10.8488   -3.9688   -0.0000 C   0  0  0  0  0  0  0  0  0  0  0  0
  -12.3579   -3.9569   -0.0000 N   0  0  0  0  0  0  0  0  0  0  0  0
  1  2  1  0
  2  3  2  0
  2  4  1  0
  3  5  1  0
  3  6  1  0
  4  7  2  0
  4  8  1  0
  5  9  1  0
  6 10  2  0
  7 11  1  0
  8 12  2  0
  9 13  2  0
  9 14  1  0
 12 15  1  0
 13 16  1  0
 14 17  1  0
 14 18  2  0
 16 19  2  0
 17 20  1  0
 18 21  1  0
 18 22  1  0
 21 23  1  0
 23 24  1  0
 24 25  1  0
 25 26  1  0
 25 27  1  6
 26 28  1  0
 28 29  2  0
 28 30  1  0
 30 31  1  0
  7 10  1  0
 11 12  1  0
 17 19  1  0
 20 21  2  0
M  END
>  <MolRegNo>  (1) 
441030

>  <m>  (1) 
=

>  <Value>  (1) 
12000

>  <Unit>  (1) 
nM

>  <Type>  (1) 
IC50

>  <pValue>  (1) 
4.92

>  <Ligand Efficiency>  (1) 
0

>  <Binding Efficiency>  (1) 
0

>  <Surface Efficiency>  (1) 
0

>  <Assay Index>  (1) 
313089

>  <Assay Category>  (1) 


>  <Assay Organism>  (1) 
Homo sapiens

>  <Target ID>  (1) 
11365

>  <Target Name>  (1) 
Cytochrome P450 2D6

>  <Target Organism>  (1) 
Homo sapiens

>  <Target Description>  (1) 
Target is a single protein chain

>  <Sequence Accession>  (1) 
P10635

>  <Reference>  (1) 
J Med Chem 51 (6), 1976-1980 (2008)

>  <Pubmed ID>  (1) 
18288793

>  <DOI>  (1) 
10.1021/jm7013309

$$$$
