4wnv_ligand_410
     RDKit          2D

 26 29  0  0  0  0  0  0  0  0999 V2000
    0.0000   -0.0000   -0.0000 S   0  0  0  0  0  0  0  0  0  0  0  0
   -1.5328   -0.1931   -0.0000 C   0  0  0  0  0  0  0  0  0  0  0  0
    0.2655    1.5208   -0.0000 C   0  0  0  0  0  0  0  0  0  0  0  0
   -2.1846    1.1949   -0.0000 C   0  0  0  0  0  0  0  0  0  0  0  0
   -1.0983    2.2691   -0.0000 C   0  0  0  0  0  0  0  0  0  0  0  0
   -3.7053    1.4845   -0.0000 C   0  0  0  0  0  0  0  0  0  0  0  0
   -4.7071    0.3259   -0.0000 N   0  0  0  0  0  0  0  0  0  0  0  0
   -4.2364    2.9450   -0.0000 C   0  0  0  0  0  0  0  0  0  0  0  0
   -6.2279    0.6155   -0.0000 C   0  0  0  0  0  0  0  0  0  0  0  0
   -5.7571    3.2346   -0.0000 C   0  0  0  0  0  0  0  0  0  0  0  0
   -6.7589    2.0760   -0.0000 N   0  0  0  0  0  0  0  0  0  0  0  0
   -6.3848    4.6467   -0.0000 N   0  0  0  0  0  0  0  0  0  0  0  0
   -5.6244    5.9865   -0.0000 C   0  0  0  0  0  0  0  0  0  0  0  0
   -7.8934    4.9847   -0.0000 C   0  0  0  0  0  0  0  0  0  0  0  0
   -6.6624    7.1451   -0.0000 C   0  0  0  0  0  0  0  0  0  0  0  0
   -8.0383    6.5054   -0.0000 C   0  0  0  0  0  0  0  0  0  0  0  0
   -6.4210    8.3521   -0.0000 N   0  0  0  0  0  0  0  0  0  0  0  0
   -9.3780    7.2900   -0.0000 C   0  0  0  0  0  0  0  0  0  0  0  0
   -9.3901    8.8349   -0.0000 C   0  0  0  0  0  0  0  0  0  0  0  0
  -10.7177    6.5296   -0.0000 C   0  0  0  0  0  0  0  0  0  0  0  0
   -8.3400    9.4625   -0.0000 F   0  0  0  0  0  0  0  0  0  0  0  0
  -10.7298    9.6073   -0.0000 C   0  0  0  0  0  0  0  0  0  0  0  0
  -12.0574    7.3020   -0.0000 C   0  0  0  0  0  0  0  0  0  0  0  0
  -12.0695    8.8469   -0.0000 C   0  0  0  0  0  0  0  0  0  0  0  0
  -13.1316    6.6986   -0.0000 F   0  0  0  0  0  0  0  0  0  0  0  0
  -13.1437    9.4745   -0.0000 F   0  0  0  0  0  0  0  0  0  0  0  0
  1  2  1  0
  1  3  1  0
  2  4  2  0
  3  5  2  0
  4  6  1  0
  6  7  2  0
  6  8  1  0
  7  9  1  0
  8 10  2  0
  9 11  2  0
 10 12  1  0
 12 13  1  0
 12 14  1  0
 13 15  1  0
 14 16  1  0
 15 17  1  0
 16 18  1  0
 18 19  2  0
 18 20  1  0
 19 21  1  0
 19 22  1  0
 20 23  2  0
 22 24  2  0
 23 25  1  0
 24 26  1  0
  4  5  1  0
 10 11  1  0
 15 16  1  0
 23 24  1  0
M  END
>  <MolRegNo>  (1) 
411560

>  <m>  (1) 
=

>  <Value>  (1) 
98

>  <Unit>  (1) 
nM

>  <Type>  (1) 
IC50

>  <pValue>  (1) 
7.01

>  <Ligand Efficiency>  (1) 
0

>  <Binding Efficiency>  (1) 
0

>  <Surface Efficiency>  (1) 
0

>  <Assay Index>  (1) 
303259

>  <Assay Category>  (1) 


>  <Assay Organism>  (1) 


>  <Target ID>  (1) 
11365

>  <Target Name>  (1) 
Cytochrome P450 2D6

>  <Target Organism>  (1) 
Homo sapiens

>  <Target Description>  (1) 
Target is a single protein chain

>  <Sequence Accession>  (1) 
P10635

>  <Reference>  (1) 
Bioorg Med Chem Lett 17 (7), 2005-2012 (2007)

>  <Pubmed ID>  (1) 
17276063

>  <DOI>  (1) 
10.1016/j.bmcl.2007.01.026

$$$$
