4wnv_ligand_562
     RDKit          2D

 22 24  0  0  0  0  0  0  0  0999 V2000
    0.0000   -0.0000   -0.0000 F   0  0  0  0  0  0  0  0  0  0  0  0
    0.0000   -1.4913   -0.0000 C   0  0  0  0  0  0  0  0  0  0  0  0
   -1.3004   -2.2429   -0.0000 C   0  0  0  0  0  0  0  0  0  0  0  0
    1.3004   -2.2191   -0.0000 C   0  0  0  0  0  0  0  0  0  0  0  0
   -1.3004   -3.7223   -0.0000 C   0  0  0  0  0  0  0  0  0  0  0  0
   -2.6247   -1.4794   -0.0000 C   0  0  0  0  0  0  0  0  0  0  0  0
    1.3004   -3.7104   -0.0000 C   0  0  0  0  0  0  0  0  0  0  0  0
   -2.6128   -4.4620   -0.0000 O   0  0  0  0  0  0  0  0  0  0  0  0
   -0.0119   -4.4501   -0.0000 C   0  0  0  0  0  0  0  0  0  0  0  0
   -2.6128   -5.9533   -0.0000 C   0  0  0  0  0  0  0  0  0  0  0  0
   -3.9251   -6.7049   -0.0000 C   0  0  0  0  0  0  0  0  0  0  0  0
   -1.3124   -6.6930   -0.0000 C   0  0  0  0  0  0  0  0  0  0  0  0
   -3.9251   -8.2082   -0.0000 C   0  0  0  0  0  0  0  0  0  0  0  0
   -5.2375   -5.9533   -0.0000 C   0  0  0  0  0  0  0  0  0  0  0  0
   -1.3124   -8.1963   -0.0000 O   0  0  0  0  0  0  0  0  0  0  0  0
   -0.0239   -5.9295   -0.0000 C   0  0  0  0  0  0  0  0  0  0  0  0
   -5.2375   -8.9479   -0.0000 C   0  0  0  0  0  0  0  0  0  0  0  0
   -2.6247   -8.9479   -0.0000 C   0  0  0  0  0  0  0  0  0  0  0  0
   -6.5498   -6.6930   -0.0000 C   0  0  0  0  0  0  0  0  0  0  0  0
    1.2646   -6.6692   -0.0000 N   0  0  0  0  0  0  0  0  0  0  0  0
   -6.5498   -8.1843   -0.0000 C   0  0  0  0  0  0  0  0  0  0  0  0
    1.2527   -8.1605   -0.0000 C   0  0  0  0  0  0  0  0  0  0  0  0
  1  2  1  0
  2  3  2  0
  2  4  1  0
  3  5  1  0
  3  6  1  0
  4  7  2  0
  5  8  1  0
  5  9  2  0
 10  8  1  1
 10 11  1  0
 10 12  1  0
 11 13  2  0
 11 14  1  0
 12 15  1  0
 12 16  1  1
 13 17  1  0
 13 18  1  0
 14 19  2  0
 16 20  1  0
 17 21  2  0
 20 22  1  0
  7  9  1  0
 15 18  1  0
 19 21  1  0
M  END
>  <MolRegNo>  (1) 
511266

>  <m>  (1) 
=

>  <Value>  (1) 
740

>  <Unit>  (1) 
nM

>  <Type>  (1) 
IC50

>  <pValue>  (1) 
6.13

>  <Ligand Efficiency>  (1) 
0

>  <Binding Efficiency>  (1) 
0

>  <Surface Efficiency>  (1) 
0

>  <Assay Index>  (1) 
358939

>  <Assay Category>  (1) 


>  <Assay Organism>  (1) 


>  <Target ID>  (1) 
11365

>  <Target Name>  (1) 
Cytochrome P450 2D6

>  <Target Organism>  (1) 
Homo sapiens

>  <Target Description>  (1) 
Target is a single protein chain

>  <Sequence Accession>  (1) 
P10635

>  <Reference>  (1) 
Bioorg Med Chem Lett 18 (16), 4491-4494 (2008)

>  <Pubmed ID>  (1) 
18672364

>  <DOI>  (1) 
10.1016/j.bmcl.2008.07.049

$$$$
