4wnv_ligand_794
     RDKit          2D

 28 32  0  0  0  0  0  0  0  0999 V2000
    0.0000   -0.0000   -0.0000 O   0  0  0  0  0  0  0  0  0  0  0  0
   -0.0118   -1.4881   -0.0000 C   0  0  0  0  0  0  0  0  0  0  0  0
    1.2755   -2.2204   -0.0000 N   0  0  0  0  0  0  0  0  0  0  0  0
   -1.3228   -2.2204   -0.0000 C   0  0  0  0  0  0  0  0  0  0  0  0
    1.2637   -3.7085   -0.0000 C   0  0  0  0  0  0  0  0  0  0  0  0
    2.5629   -1.4645   -0.0000 C   0  0  0  0  0  0  0  0  0  0  0  0
   -1.3346   -3.7085   -0.0000 C   0  0  0  0  0  0  0  0  0  0  0  0
   -2.6337   -1.4645   -0.0000 C   0  0  0  0  0  0  0  0  0  0  0  0
   -0.0472   -4.4407   -0.0000 C   0  0  0  0  0  0  0  0  0  0  0  0
    2.5511    0.0472   -0.0000 C   0  0  0  0  0  0  0  0  0  0  0  0
   -2.6455   -4.4407   -0.0000 C   0  0  0  0  0  0  0  0  0  0  0  0
   -3.9447   -2.1967   -0.0000 C   0  0  0  0  0  0  0  0  0  0  0  0
   -3.9565   -3.6849   -0.0000 C   0  0  0  0  0  0  0  0  0  0  0  0
   -5.2675   -4.4171   -0.0000 C   0  0  0  0  0  0  0  0  0  0  0  0
   -5.2793   -5.9052   -0.0000 C   0  0  0  0  0  0  0  0  0  0  0  0
   -6.5784   -3.6612   -0.0000 C   0  0  0  0  0  0  0  0  0  0  0  0
   -6.5902   -6.6493   -0.0000 C   0  0  0  0  0  0  0  0  0  0  0  0
   -3.9919   -6.6493   -0.0000 C   0  0  0  0  0  0  0  0  0  0  0  0
   -7.8894   -4.3935   -0.0000 C   0  0  0  0  0  0  0  0  0  0  0  0
   -7.9012   -5.8934   -0.0000 O   0  0  0  0  0  0  0  0  0  0  0  0
   -6.6021   -8.1374   -0.0000 C   0  0  0  0  0  0  0  0  0  0  0  0
   -4.0038   -8.1374   -0.0000 C   0  0  0  0  0  0  0  0  0  0  0  0
   -9.2004   -5.1376   -0.0000 C   0  0  0  0  0  0  0  0  0  0  0  0
   -7.9012   -2.8818   -0.0000 C   0  0  0  0  0  0  0  0  0  0  0  0
   -5.3147   -8.8815   -0.0000 C   0  0  0  0  0  0  0  0  0  0  0  0
  -10.5113   -4.3817   -0.0000 C   0  0  0  0  0  0  0  0  0  0  0  0
   -9.2122   -2.1259   -0.0000 C   0  0  0  0  0  0  0  0  0  0  0  0
  -10.5231   -2.8699   -0.0000 N   0  0  0  0  0  0  0  0  0  0  0  0
  1  2  2  0
  2  3  1  0
  2  4  1  0
  3  5  1  0
  3  6  1  0
  4  7  2  0
  4  8  1  0
  5  9  1  0
  6 10  1  0
  7 11  1  0
  8 12  2  0
 11 13  2  0
 13 14  1  0
 14 15  1  0
 14 16  2  0
 15 17  2  0
 15 18  1  0
 16 19  1  0
 17 20  1  0
 17 21  1  0
 18 22  2  0
 19 23  1  0
 19 24  1  0
 21 25  2  0
 23 26  1  0
 24 27  1  0
 26 28  1  0
  7  9  1  0
 12 13  1  0
 19 20  1  0
 22 25  1  0
 27 28  1  0
M  END
>  <MolRegNo>  (1) 
560910

>  <m>  (1) 
=

>  <Value>  (1) 
2800

>  <Unit>  (1) 
nM

>  <Type>  (1) 
IC50

>  <pValue>  (1) 
5.55

>  <Ligand Efficiency>  (1) 
0

>  <Binding Efficiency>  (1) 
0

>  <Surface Efficiency>  (1) 
0

>  <Assay Index>  (1) 
428577

>  <Assay Category>  (1) 


>  <Assay Organism>  (1) 
Homo sapiens

>  <Target ID>  (1) 
11365

>  <Target Name>  (1) 
Cytochrome P450 2D6

>  <Target Organism>  (1) 
Homo sapiens

>  <Target Description>  (1) 
Target is a single protein chain

>  <Sequence Accession>  (1) 
P10635

>  <Reference>  (1) 
J Med Chem 52 (18), 5685-5702 (2009)

>  <Pubmed ID>  (1) 
19694468

>  <DOI>  (1) 
10.1021/jm900773n

$$$$
