4wnv_ligand_780
     RDKit          2D

 23 26  0  0  0  0  0  0  0  0999 V2000
    0.0000   -0.0000   -0.0000 Br  0  0  0  0  0  0  0  0  0  0  0  0
    1.2963   -0.7322   -0.0000 C   0  0  0  0  0  0  0  0  0  0  0  0
    2.5806    0.0360   -0.0000 C   0  0  0  0  0  0  0  0  0  0  0  0
    1.2843   -2.2325   -0.0000 C   0  0  0  0  0  0  0  0  0  0  0  0
    3.8769   -0.6962   -0.0000 C   0  0  0  0  0  0  0  0  0  0  0  0
    2.5806   -2.9767   -0.0000 C   0  0  0  0  0  0  0  0  0  0  0  0
    3.8649   -2.2085   -0.0000 C   0  0  0  0  0  0  0  0  0  0  0  0
    5.3052   -0.2160   -0.0000 C   0  0  0  0  0  0  0  0  0  0  0  0
    5.2932   -2.6526   -0.0000 N   0  0  0  0  0  0  0  0  0  0  0  0
    6.1934   -1.4283   -0.0000 C   0  0  0  0  0  0  0  0  0  0  0  0
    5.9053    1.1883   -0.0000 C   0  0  0  0  0  0  0  0  0  0  0  0
    7.6817   -1.2483   -0.0000 C   0  0  0  0  0  0  0  0  0  0  0  0
    7.4057    1.3563   -0.0000 C   0  0  0  0  0  0  0  0  0  0  0  0
    8.5579   -2.4486   -0.0000 N   0  0  0  0  0  0  0  0  0  0  0  0
    8.2819    0.1440   -0.0000 C   0  0  0  0  0  0  0  0  0  0  0  0
   10.0343   -2.2805   -0.0000 C   0  0  0  0  0  0  0  0  0  0  0  0
   10.9105   -3.4808   -0.0000 C   0  0  0  0  0  0  0  0  0  0  0  0
   10.6344   -0.9002   -0.0000 C   0  0  0  0  0  0  0  0  0  0  0  0
   10.2863   -4.8491   -0.0000 C   0  0  0  0  0  0  0  0  0  0  0  0
   12.3988   -3.3007   -0.0000 C   0  0  0  0  0  0  0  0  0  0  0  0
   11.1505   -6.0494   -0.0000 C   0  0  0  0  0  0  0  0  0  0  0  0
   13.2750   -4.5010   -0.0000 C   0  0  0  0  0  0  0  0  0  0  0  0
   12.6388   -5.8813   -0.0000 C   0  0  0  0  0  0  0  0  0  0  0  0
  1  2  1  0
  2  3  2  0
  2  4  1  0
  3  5  1  0
  4  6  2  0
  5  7  2  0
  5  8  1  0
  7  9  1  0
  8 10  2  0
  8 11  1  0
 10 12  1  0
 11 13  1  0
 12 14  1  6
 12 15  1  0
 16 14  1  0
 16 17  1  0
 16 18  1  1
 17 19  2  0
 17 20  1  0
 19 21  1  0
 20 22  2  0
 21 23  2  0
  6  7  1  0
  9 10  1  0
 13 15  1  0
 22 23  1  0
M  END
>  <MolRegNo>  (1) 
501925

>  <m>  (1) 
=

>  <Value>  (1) 
160

>  <Unit>  (1) 
nM

>  <Type>  (1) 
IC50

>  <pValue>  (1) 
6.8

>  <Ligand Efficiency>  (1) 
0

>  <Binding Efficiency>  (1) 
0

>  <Surface Efficiency>  (1) 
0

>  <Assay Index>  (1) 
423229

>  <Assay Category>  (1) 


>  <Assay Organism>  (1) 


>  <Target ID>  (1) 
11365

>  <Target Name>  (1) 
Cytochrome P450 2D6

>  <Target Organism>  (1) 
Homo sapiens

>  <Target Description>  (1) 
Target is a single protein chain

>  <Sequence Accession>  (1) 
P10635

>  <Reference>  (1) 
Bioorg Med Chem Lett 19 (15), 4110-4114 (2009)

>  <Pubmed ID>  (1) 
19556128

>  <DOI>  (1) 
10.1016/j.bmcl.2009.06.001

$$$$
