4wnv_ligand_95
     RDKit          2D

 12 13  0  0  0  0  0  0  0  0999 V2000
    0.0000   -0.0000   -0.0000 S   0  0  0  0  0  0  0  0  0  0  0  0
   -0.1436    1.5075   -0.0000 C   0  0  0  0  0  0  0  0  0  0  0  0
    1.4716   -0.3111   -0.0000 C   0  0  0  0  0  0  0  0  0  0  0  0
   -1.4716    2.2852   -0.0000 C   0  0  0  0  0  0  0  0  0  0  0  0
    1.2204    2.1416   -0.0000 C   0  0  0  0  0  0  0  0  0  0  0  0
    2.2254    1.0170   -0.0000 C   0  0  0  0  0  0  0  0  0  0  0  0
   -2.7997    1.5314   -0.0000 C   0  0  0  0  0  0  0  0  0  0  0  0
   -1.4836    3.8166   -0.0000 C   0  0  0  0  0  0  0  0  0  0  0  0
    1.4596    3.3381   -0.0000 C   0  0  0  0  0  0  0  0  0  0  0  0
   -4.1277    2.2972   -0.0000 N   0  0  0  0  0  0  0  0  0  0  0  0
   -2.8116    4.5823   -0.0000 C   0  0  0  0  0  0  0  0  0  0  0  0
   -4.1397    3.8286   -0.0000 C   0  0  0  0  0  0  0  0  0  0  0  0
  1  2  1  0
  1  3  1  0
  2  4  1  0
  2  5  2  0
  3  6  2  0
  4  7  2  0
  4  8  1  0
  5  9  1  0
  7 10  1  0
  8 11  2  0
 10 12  2  0
  5  6  1  0
 11 12  1  0
M  END
>  <MolRegNo>  (1) 
299718

>  <m>  (1) 
=

>  <Value>  (1) 
92500

>  <Unit>  (1) 
nM

>  <Type>  (1) 
IC50

>  <pValue>  (1) 
4.03

>  <Ligand Efficiency>  (1) 
0

>  <Binding Efficiency>  (1) 
0

>  <Surface Efficiency>  (1) 
0

>  <Assay Index>  (1) 
238570

>  <Assay Category>  (1) 


>  <Assay Organism>  (1) 
Homo sapiens

>  <Target ID>  (1) 
11365

>  <Target Name>  (1) 
Cytochrome P450 2D6

>  <Target Organism>  (1) 
Homo sapiens

>  <Target Description>  (1) 
Target is a single protein chain

>  <Sequence Accession>  (1) 
P10635

>  <Reference>  (1) 
J Med Chem 48 (1), 224-239 (2005)

>  <Pubmed ID>  (1) 
15634016

>  <DOI>  (1) 
10.1021/jm049696n

$$$$
