4wnv_ligand_488
     RDKit          2D

 39 43  0  0  1  0  0  0  0  0999 V2000
    0.0000   -0.0000   -0.0000 F   0  0  0  0  0  0  0  0  0  0  0  0
    1.4935   -0.0000   -0.0000 C   0  0  0  0  0  0  0  0  0  0  0  0
    2.2284   -1.2920   -0.0000 C   0  0  0  0  0  0  0  0  0  0  0  0
    2.2402    1.3038   -0.0000 C   0  0  0  0  0  0  0  0  0  0  0  0
    3.7219   -1.2920   -0.0000 C   0  0  0  0  0  0  0  0  0  0  0  0
    3.7219    1.3157   -0.0000 C   0  0  0  0  0  0  0  0  0  0  0  0
    4.4686    0.0237   -0.0000 C   0  0  0  0  0  0  0  0  0  0  0  0
    5.9621    0.0356   -0.0000 C   0  0  0  0  0  0  0  0  0  0  0  0
    6.7089    1.3513   -0.0000 C   0  0  0  0  0  0  0  0  0  0  0  0
    8.2024    1.3631   -0.0000 C   0  0  0  0  0  0  0  0  0  0  0  0
    5.9384    2.6670   -0.0000 C   0  0  0  0  0  0  0  0  0  0  0  0
    8.9491    2.6670   -0.0000 N   0  0  0  0  0  0  0  0  0  0  0  0
    6.6852    3.9826   -0.0000 C   0  0  0  0  0  0  0  0  0  0  0  0
   10.4426    2.6670   -0.0000 C   0  0  0  0  0  0  0  0  0  0  0  0
    8.1905    3.9826   -0.0000 C   0  0  0  0  0  0  0  0  0  0  0  0
   11.1893    3.9826   -0.0000 O   0  0  0  0  0  0  0  0  0  0  0  0
   11.1775    1.3750   -0.0000 C   0  0  0  0  0  0  0  0  0  0  0  0
   12.6710    1.3750   -0.0000 C   0  0  0  0  0  0  0  0  0  0  0  0
   13.4177    2.6907   -0.0000 N   0  0  0  0  0  0  0  0  0  0  0  0
   13.4059    0.0830   -0.0000 C   0  0  0  0  0  0  0  0  0  0  0  0
   14.9112    2.6907   -0.0000 C   0  0  0  0  0  0  0  0  0  0  0  0
   15.6461    1.3987   -0.0000 O   0  0  0  0  0  0  0  0  0  0  0  0
   15.6580    4.0064   -0.0000 N   0  0  0  0  0  0  0  0  0  0  0  0
   17.1515    4.0064   -0.0000 C   0  0  0  0  0  0  0  0  0  0  0  0
   17.8745    2.7144   -0.0000 C   0  0  0  0  0  0  0  0  0  0  0  0
   17.8864    5.3221   -0.0000 C   0  0  0  0  0  0  0  0  0  0  0  0
   19.3680    2.7144   -0.0000 C   0  0  0  0  0  0  0  0  0  0  0  0
   19.3799    5.3339   -0.0000 C   0  0  0  0  0  0  0  0  0  0  0  0
   20.1740    1.4698   -0.0000 C   0  0  0  0  0  0  0  0  0  0  0  0
   20.1147    4.0301   -0.0000 C   0  0  0  0  0  0  0  0  0  0  0  0
   20.1266    6.6496   -0.0000 C   0  0  0  0  0  0  0  0  0  0  0  0
   21.6319    1.1498   -0.0000 O   0  0  0  0  0  0  0  0  0  0  0  0
   19.3917    0.1896   -0.0000 N   0  0  0  0  0  0  0  0  0  0  0  0
   19.4984    8.0364   -0.0000 O   0  0  0  0  0  0  0  0  0  0  0  0
   21.6082    6.8155   -0.0000 N   0  0  0  0  0  0  0  0  0  0  0  0
   21.7505   -0.3319   -0.0000 C   0  0  0  0  0  0  0  0  0  0  0  0
   20.3755   -0.9364   -0.0000 C   0  0  0  0  0  0  0  0  0  0  0  0
   20.6126    9.0558   -0.0000 C   0  0  0  0  0  0  0  0  0  0  0  0
   21.9164    8.2972   -0.0000 C   0  0  0  0  0  0  0  0  0  0  0  0
  1  2  1  0
  2  3  2  0
  2  4  1  0
  3  5  1  0
  4  6  2  0
  5  7  2  0
  7  8  1  0
  9  8  1  6
  9 10  1  0
  9 11  1  0
 10 12  1  0
 11 13  1  0
 12 14  1  0
 12 15  1  0
 14 16  1  6
 14 17  1  0
 17 18  1  0
 18 19  1  0
 18 20  1  6
 19 21  1  0
 21 22  2  0
 21 23  1  0
 23 24  1  0
 24 25  2  0
 24 26  1  0
 25 27  1  0
 26 28  2  0
 27 29  1  0
 27 30  2  0
 28 31  1  0
 29 32  1  0
 29 33  2  0
 31 34  1  0
 31 35  2  0
 32 36  1  0
 33 37  1  0
 34 38  1  0
 35 39  1  0
  6  7  1  0
 13 15  1  0
 28 30  1  0
 36 37  2  0
 38 39  2  0
M  END
>  <MolRegNo>  (1) 
437678

>  <m>  (1) 
=

>  <Value>  (1) 
500

>  <Unit>  (1) 
nM

>  <Type>  (1) 
IC50

>  <pValue>  (1) 
6.3

>  <Ligand Efficiency>  (1) 
0

>  <Binding Efficiency>  (1) 
0

>  <Surface Efficiency>  (1) 
0

>  <Assay Index>  (1) 
314783

>  <Assay Category>  (1) 


>  <Assay Organism>  (1) 


>  <Target ID>  (1) 
11365

>  <Target Name>  (1) 
Cytochrome P450 2D6

>  <Target Organism>  (1) 
Homo sapiens

>  <Target Description>  (1) 
Target is a single protein chain

>  <Sequence Accession>  (1) 
P10635

>  <Reference>  (1) 
Bioorg Med Chem Lett 18 (2), 576-585 (2008)

>  <Pubmed ID>  (1) 
18096386

>  <DOI>  (1) 
10.1016/j.bmcl.2007.11.067

$$$$
