4wnv_ligand_1005
     RDKit          2D

 21 23  0  0  0  0  0  0  0  0999 V2000
    0.0000   -0.0000   -0.0000 S   0  0  0  0  0  0  0  0  0  0  0  0
   -1.4530   -0.4526   -0.0000 C   0  0  0  0  0  0  0  0  0  0  0  0
    0.8813   -1.2029   -0.0000 C   0  0  0  0  0  0  0  0  0  0  0  0
   -1.4649   -1.9532   -0.0000 C   0  0  0  0  0  0  0  0  0  0  0  0
   -2.7631    0.2977   -0.0000 C   0  0  0  0  0  0  0  0  0  0  0  0
   -0.0119   -2.4177   -0.0000 C   0  0  0  0  0  0  0  0  0  0  0  0
    2.3700   -1.1791   -0.0000 C   0  0  0  0  0  0  0  0  0  0  0  0
   -2.7750   -2.6916   -0.0000 C   0  0  0  0  0  0  0  0  0  0  0  0
   -4.0731   -0.4407   -0.0000 C   0  0  0  0  0  0  0  0  0  0  0  0
    0.4526   -3.8230   -0.0000 C   0  0  0  0  0  0  0  0  0  0  0  0
    3.1084   -2.4653   -0.0000 C   0  0  0  0  0  0  0  0  0  0  0  0
   -4.0850   -1.9294   -0.0000 C   0  0  0  0  0  0  0  0  0  0  0  0
   -0.8575   -4.5614   -0.0000 C   0  0  0  0  0  0  0  0  0  0  0  0
    1.9056   -4.1089   -0.0000 C   0  0  0  0  0  0  0  0  0  0  0  0
    4.5972   -2.4415   -0.0000 N   0  0  0  0  0  0  0  0  0  0  0  0
   -0.8575   -6.0382   -0.0000 N   0  0  0  0  0  0  0  0  0  0  0  0
   -2.1676   -3.7992   -0.0000 C   0  0  0  0  0  0  0  0  0  0  0  0
    5.3475   -3.7277   -0.0000 C   0  0  0  0  0  0  0  0  0  0  0  0
   -2.1557   -6.7885   -0.0000 C   0  0  0  0  0  0  0  0  0  0  0  0
   -3.4776   -4.5376   -0.0000 C   0  0  0  0  0  0  0  0  0  0  0  0
   -3.4776   -6.0382   -0.0000 C   0  0  0  0  0  0  0  0  0  0  0  0
  1  2  1  0
  1  3  1  0
  2  4  2  0
  2  5  1  0
  3  6  2  0
  3  7  1  0
  4  8  1  0
  5  9  2  0
  6 10  1  0
  7 11  1  0
  8 12  2  0
 10 13  1  0
 10 14  1  6
 11 15  1  0
 13 16  2  0
 13 17  1  0
 15 18  1  0
 16 19  1  0
 17 20  2  0
 19 21  2  0
  4  6  1  0
  9 12  1  0
 20 21  1  0
M  END
>  <MolRegNo>  (1) 
619907

>  <m>  (1) 
=

>  <Value>  (1) 
9.8

>  <Unit>  (1) 
nM

>  <Type>  (1) 
IC50

>  <pValue>  (1) 
8.01

>  <Ligand Efficiency>  (1) 
0

>  <Binding Efficiency>  (1) 
0

>  <Surface Efficiency>  (1) 
0

>  <Assay Index>  (1) 
469728

>  <Assay Category>  (1) 


>  <Assay Organism>  (1) 


>  <Target ID>  (1) 
11365

>  <Target Name>  (1) 
Cytochrome P450 2D6

>  <Target Organism>  (1) 
Homo sapiens

>  <Target Description>  (1) 
Target is a single protein chain

>  <Sequence Accession>  (1) 
P10635

>  <Reference>  (1) 
Bioorg Med Chem Lett 20 (7), 2316-2320 (2010)

>  <Pubmed ID>  (1) 
20188547

>  <DOI>  (1) 
10.1016/j.bmcl.2010.01.134

$$$$
