4wnv_ligand_997
     RDKit          2D

 24 26  0  0  0  0  0  0  0  0999 V2000
    0.0000   -0.0000   -0.0000 O   0  0  0  0  0  0  0  0  0  0  0  0
    1.0048   -1.1005   -0.0000 C   0  0  0  0  0  0  0  0  0  0  0  0
   -1.4833   -0.3110   -0.0000 C   0  0  0  0  0  0  0  0  0  0  0  0
    2.4641   -0.7656   -0.0000 C   0  0  0  0  0  0  0  0  0  0  0  0
    0.5263   -2.5240   -0.0000 C   0  0  0  0  0  0  0  0  0  0  0  0
    3.4689   -1.8660   -0.0000 C   0  0  0  0  0  0  0  0  0  0  0  0
    1.5311   -3.6244   -0.0000 C   0  0  0  0  0  0  0  0  0  0  0  0
    2.9905   -3.3015   -0.0000 C   0  0  0  0  0  0  0  0  0  0  0  0
    4.9761   -1.8421   -0.0000 C   0  0  0  0  0  0  0  0  0  0  0  0
    4.2106   -4.1747   -0.0000 C   0  0  0  0  0  0  0  0  0  0  0  0
    5.4426   -3.2775   -0.0000 C   0  0  0  0  0  0  0  0  0  0  0  0
    4.1986   -5.6699   -0.0000 C   0  0  0  0  0  0  0  0  0  0  0  0
    6.8661   -3.7201   -0.0000 C   0  0  0  0  0  0  0  0  0  0  0  0
    5.5025   -6.3876   -0.0000 C   0  0  0  0  0  0  0  0  0  0  0  0
    2.8828   -6.4235   -0.0000 C   0  0  0  0  0  0  0  0  0  0  0  0
    7.9666   -2.6914   -0.0000 C   0  0  0  0  0  0  0  0  0  0  0  0
    6.7824   -5.6101   -0.0000 N   0  0  0  0  0  0  0  0  0  0  0  0
    5.5025   -7.8829   -0.0000 C   0  0  0  0  0  0  0  0  0  0  0  0
    9.3901   -3.1340   -0.0000 N   0  0  0  0  0  0  0  0  0  0  0  0
    8.0862   -6.3398   -0.0000 C   0  0  0  0  0  0  0  0  0  0  0  0
    6.8063   -8.6125   -0.0000 N   0  0  0  0  0  0  0  0  0  0  0  0
   10.4905   -2.1053   -0.0000 C   0  0  0  0  0  0  0  0  0  0  0  0
    9.7011   -4.5934   -0.0000 C   0  0  0  0  0  0  0  0  0  0  0  0
    8.0862   -7.8470   -0.0000 C   0  0  0  0  0  0  0  0  0  0  0  0
  1  2  1  0
  1  3  1  0
  2  4  2  0
  2  5  1  0
  4  6  1  0
  5  7  2  0
  6  8  2  0
  6  9  1  0
  8 10  1  0
  9 11  1  0
 10 12  1  0
 11 13  1  0
 12 14  1  0
 12 15  1  1
 13 16  1  0
 14 17  2  0
 14 18  1  0
 16 19  1  0
 17 20  1  0
 18 21  2  0
 19 22  1  0
 19 23  1  0
 20 24  2  0
  7  8  1  0
 10 11  2  0
 21 24  1  0
M  END
>  <MolRegNo>  (1) 
621166

>  <m>  (1) 
=

>  <Value>  (1) 
12000

>  <Unit>  (1) 
nM

>  <Type>  (1) 
IC50

>  <pValue>  (1) 
4.92

>  <Ligand Efficiency>  (1) 
0

>  <Binding Efficiency>  (1) 
0

>  <Surface Efficiency>  (1) 
0

>  <Assay Index>  (1) 
470598

>  <Assay Category>  (1) 


>  <Assay Organism>  (1) 


>  <Target ID>  (1) 
11365

>  <Target Name>  (1) 
Cytochrome P450 2D6

>  <Target Organism>  (1) 
Homo sapiens

>  <Target Description>  (1) 
Target is a single protein chain

>  <Sequence Accession>  (1) 
P10635

>  <Reference>  (1) 
Bioorg Med Chem Lett 20 (8), 2629-2633 (2010)

>  <Pubmed ID>  (1) 
20227880

>  <DOI>  (1) 
10.1016/j.bmcl.2010.02.055

$$$$
