4wnv_ligand_482
     RDKit          2D

 39 42  0  0  1  0  0  0  0  0999 V2000
    0.0000   -0.0000   -0.0000 F   0  0  0  0  0  0  0  0  0  0  0  0
    1.4933   -0.0000   -0.0000 C   0  0  0  0  0  0  0  0  0  0  0  0
    2.2281   -1.2918   -0.0000 C   0  0  0  0  0  0  0  0  0  0  0  0
    2.2399    1.3037   -0.0000 C   0  0  0  0  0  0  0  0  0  0  0  0
    3.7214   -1.2918   -0.0000 C   0  0  0  0  0  0  0  0  0  0  0  0
    3.7214    1.3155   -0.0000 C   0  0  0  0  0  0  0  0  0  0  0  0
    4.4680    0.0237   -0.0000 C   0  0  0  0  0  0  0  0  0  0  0  0
    5.9613    0.0356   -0.0000 C   0  0  0  0  0  0  0  0  0  0  0  0
    6.7080    1.3511   -0.0000 C   0  0  0  0  0  0  0  0  0  0  0  0
    8.2013    1.3629   -0.0000 C   0  0  0  0  0  0  0  0  0  0  0  0
    5.9376    2.6666   -0.0000 C   0  0  0  0  0  0  0  0  0  0  0  0
    8.9479    2.6666   -0.0000 N   0  0  0  0  0  0  0  0  0  0  0  0
    6.6843    3.9821   -0.0000 C   0  0  0  0  0  0  0  0  0  0  0  0
   10.4412    2.6666   -0.0000 C   0  0  0  0  0  0  0  0  0  0  0  0
    8.1894    3.9821   -0.0000 C   0  0  0  0  0  0  0  0  0  0  0  0
   11.1879    3.9821   -0.0000 O   0  0  0  0  0  0  0  0  0  0  0  0
   11.1760    1.3748   -0.0000 C   0  0  0  0  0  0  0  0  0  0  0  0
   10.4294    5.2976   -0.0000 C   0  0  0  0  0  0  0  0  0  0  0  0
   12.6693    1.3748   -0.0000 C   0  0  0  0  0  0  0  0  0  0  0  0
    8.9124    5.3213   -0.0000 O   0  0  0  0  0  0  0  0  0  0  0  0
   11.1760    6.6132   -0.0000 N   0  0  0  0  0  0  0  0  0  0  0  0
   13.4160    2.6903   -0.0000 N   0  0  0  0  0  0  0  0  0  0  0  0
   13.4041    0.0830   -0.0000 C   0  0  0  0  0  0  0  0  0  0  0  0
   12.6693    6.6132   -0.0000 C   0  0  0  0  0  0  0  0  0  0  0  0
   14.9092    2.6903   -0.0000 C   0  0  0  0  0  0  0  0  0  0  0  0
   15.6440    1.3985   -0.0000 O   0  0  0  0  0  0  0  0  0  0  0  0
   15.6559    4.0058   -0.0000 N   0  0  0  0  0  0  0  0  0  0  0  0
   17.1492    4.0058   -0.0000 C   0  0  0  0  0  0  0  0  0  0  0  0
   17.8721    2.7140   -0.0000 C   0  0  0  0  0  0  0  0  0  0  0  0
   17.8840    5.3213   -0.0000 C   0  0  0  0  0  0  0  0  0  0  0  0
   19.3654    2.7140   -0.0000 C   0  0  0  0  0  0  0  0  0  0  0  0
   19.3773    5.3332   -0.0000 C   0  0  0  0  0  0  0  0  0  0  0  0
   20.1121    1.4222   -0.0000 C   0  0  0  0  0  0  0  0  0  0  0  0
   20.1121    4.0295   -0.0000 C   0  0  0  0  0  0  0  0  0  0  0  0
   21.5935    1.2681   -0.0000 N   0  0  0  0  0  0  0  0  0  0  0  0
   19.4839    0.0593   -0.0000 N   0  0  0  0  0  0  0  0  0  0  0  0
   21.8898   -0.1896   -0.0000 N   0  0  0  0  0  0  0  0  0  0  0  0
   20.5861   -0.9481   -0.0000 N   0  0  0  0  0  0  0  0  0  0  0  0
   18.0025   -0.2370   -0.0000 C   0  0  0  0  0  0  0  0  0  0  0  0
  1  2  1  0
  2  3  2  0
  2  4  1  0
  3  5  1  0
  4  6  2  0
  5  7  2  0
  7  8  1  0
  9  8  1  6
  9 10  1  0
  9 11  1  0
 10 12  1  0
 11 13  1  0
 12 14  1  0
 12 15  1  0
 14 16  1  0
 14 17  1  6
 16 18  1  0
 17 19  1  0
 18 20  2  0
 18 21  1  0
 19 22  1  0
 19 23  1  6
 21 24  1  0
 22 25  1  0
 25 26  2  0
 25 27  1  0
 27 28  1  0
 28 29  2  0
 28 30  1  0
 29 31  1  0
 30 32  2  0
 31 33  1  0
 31 34  2  0
 33 35  2  0
 33 36  1  0
 35 37  1  0
 36 38  1  0
 36 39  1  0
  6  7  1  0
 13 15  1  0
 32 34  1  0
 37 38  2  0
M  END
>  <MolRegNo>  (1) 
438262

>  <m>  (1) 
=

>  <Value>  (1) 
4000

>  <Unit>  (1) 
nM

>  <Type>  (1) 
IC50

>  <pValue>  (1) 
5.4

>  <Ligand Efficiency>  (1) 
0

>  <Binding Efficiency>  (1) 
0

>  <Surface Efficiency>  (1) 
0

>  <Assay Index>  (1) 
314783

>  <Assay Category>  (1) 


>  <Assay Organism>  (1) 


>  <Target ID>  (1) 
11365

>  <Target Name>  (1) 
Cytochrome P450 2D6

>  <Target Organism>  (1) 
Homo sapiens

>  <Target Description>  (1) 
Target is a single protein chain

>  <Sequence Accession>  (1) 
P10635

>  <Reference>  (1) 
Bioorg Med Chem Lett 18 (2), 576-585 (2008)

>  <Pubmed ID>  (1) 
18096386

>  <DOI>  (1) 
10.1016/j.bmcl.2007.11.067

$$$$
