4wnv_ligand_984
     RDKit          2D

 22 24  0  0  0  0  0  0  0  0999 V2000
    0.0000   -0.0000   -0.0000 N   0  0  0  0  0  0  0  0  0  0  0  0
   -0.0118    1.5019   -0.0000 C   0  0  0  0  0  0  0  0  0  0  0  0
   -1.3009   -0.7332   -0.0000 C   0  0  0  0  0  0  0  0  0  0  0  0
   -1.3009    2.2706   -0.0000 C   0  0  0  0  0  0  0  0  0  0  0  0
    1.2772    2.2469   -0.0000 C   0  0  0  0  0  0  0  0  0  0  0  0
   -2.6135    0.0355   -0.0000 C   0  0  0  0  0  0  0  0  0  0  0  0
   -2.6135    1.5492   -0.0000 N   0  0  0  0  0  0  0  0  0  0  0  0
    0.8042    3.6779   -0.0000 C   0  0  0  0  0  0  0  0  0  0  0  0
   -3.9262   -0.6859   -0.0000 C   0  0  0  0  0  0  0  0  0  0  0  0
   -0.6386    4.1509   -0.0000 C   0  0  0  0  0  0  0  0  0  0  0  0
    1.6793    4.9078   -0.0000 C   0  0  0  0  0  0  0  0  0  0  0  0
   -0.6504    5.6646   -0.0000 C   0  0  0  0  0  0  0  0  0  0  0  0
   -1.9395    3.4177   -0.0000 C   0  0  0  0  0  0  0  0  0  0  0  0
    0.7805    6.1377   -0.0000 C   0  0  0  0  0  0  0  0  0  0  0  0
    3.1575    4.9196   -0.0000 C   0  0  0  0  0  0  0  0  0  0  0  0
   -1.9513    6.4215   -0.0000 C   0  0  0  0  0  0  0  0  0  0  0  0
   -3.2403    4.1746   -0.0000 C   0  0  0  0  0  0  0  0  0  0  0  0
    3.8907    3.6424   -0.0000 C   0  0  0  0  0  0  0  0  0  0  0  0
   -3.2521    5.6883   -0.0000 C   0  0  0  0  0  0  0  0  0  0  0  0
    5.3690    3.6542   -0.0000 N   0  0  0  0  0  0  0  0  0  0  0  0
    6.1022    2.3770   -0.0000 C   0  0  0  0  0  0  0  0  0  0  0  0
    6.1022    4.9551   -0.0000 C   0  0  0  0  0  0  0  0  0  0  0  0
  1  2  2  0
  1  3  1  0
  2  4  1  0
  2  5  1  0
  3  6  2  0
  4  7  2  0
  5  8  1  0
  6  9  1  0
  8 10  1  0
  8 11  2  0
 10 12  2  0
 10 13  1  0
 11 14  1  0
 11 15  1  0
 12 16  1  0
 13 17  2  0
 15 18  1  0
 16 19  2  0
 18 20  1  0
 20 21  1  0
 20 22  1  0
  6  7  1  0
 12 14  1  0
 17 19  1  0
M  END
>  <MolRegNo>  (1) 
620956

>  <m>  (1) 
=

>  <Value>  (1) 
3200

>  <Unit>  (1) 
nM

>  <Type>  (1) 
IC50

>  <pValue>  (1) 
5.5

>  <Ligand Efficiency>  (1) 
0

>  <Binding Efficiency>  (1) 
0

>  <Surface Efficiency>  (1) 
0

>  <Assay Index>  (1) 
470598

>  <Assay Category>  (1) 


>  <Assay Organism>  (1) 


>  <Target ID>  (1) 
11365

>  <Target Name>  (1) 
Cytochrome P450 2D6

>  <Target Organism>  (1) 
Homo sapiens

>  <Target Description>  (1) 
Target is a single protein chain

>  <Sequence Accession>  (1) 
P10635

>  <Reference>  (1) 
Bioorg Med Chem Lett 20 (8), 2629-2633 (2010)

>  <Pubmed ID>  (1) 
20227880

>  <DOI>  (1) 
10.1016/j.bmcl.2010.02.055

$$$$
