4wnv_ligand_768
     RDKit          2D

 26 27  0  0  0  0  0  0  0  0999 V2000
    0.0000   -0.0000   -0.0000 O   0  0  0  0  0  0  0  0  0  0  0  0
   -1.2692   -0.8066   -0.0000 C   0  0  0  0  0  0  0  0  0  0  0  0
    1.2929   -0.7354   -0.0000 C   0  0  0  0  0  0  0  0  0  0  0  0
   -2.6214   -0.1068   -0.0000 C   0  0  0  0  0  0  0  0  0  0  0  0
   -1.1980   -2.3011   -0.0000 C   0  0  0  0  0  0  0  0  0  0  0  0
    2.5858    0.0237   -0.0000 C   0  0  0  0  0  0  0  0  0  0  0  0
   -2.7163    1.3996   -0.0000 C   0  0  0  0  0  0  0  0  0  0  0  0
   -3.8905   -0.9133   -0.0000 C   0  0  0  0  0  0  0  0  0  0  0  0
   -2.4672   -3.1077   -0.0000 C   0  0  0  0  0  0  0  0  0  0  0  0
    3.8787   -0.7117   -0.0000 O   0  0  0  0  0  0  0  0  0  0  0  0
    2.5739    1.5420   -0.0000 C   0  0  0  0  0  0  0  0  0  0  0  0
   -2.7993    2.9179   -0.0000 N   0  0  0  0  0  0  0  0  0  0  0  0
   -3.8312   -2.3960   -0.0000 C   0  0  0  0  0  0  0  0  0  0  0  0
    3.8668    2.3011   -0.0000 N   0  0  0  0  0  0  0  0  0  0  0  0
    5.1597    1.5657   -0.0000 C   0  0  0  0  0  0  0  0  0  0  0  0
    4.4006    0.2728   -0.0000 C   0  0  0  0  0  0  0  0  0  0  0  0
    5.9070    2.8823   -0.0000 C   0  0  0  0  0  0  0  0  0  0  0  0
    6.4526    0.8184   -0.0000 C   0  0  0  0  0  0  0  0  0  0  0  0
    5.1360   -1.0201   -0.0000 C   0  0  0  0  0  0  0  0  0  0  0  0
    4.3769   -2.3130   -0.0000 C   0  0  0  0  0  0  0  0  0  0  0  0
    6.6305   -1.0082   -0.0000 C   0  0  0  0  0  0  0  0  0  0  0  0
    5.1123   -3.6059   -0.0000 C   0  0  0  0  0  0  0  0  0  0  0  0
    7.3659   -2.3011   -0.0000 C   0  0  0  0  0  0  0  0  0  0  0  0
    6.6068   -3.5940   -0.0000 C   0  0  0  0  0  0  0  0  0  0  0  0
    7.3422   -4.8869   -0.0000 O   0  0  0  0  0  0  0  0  0  0  0  0
    8.8367   -4.8750   -0.0000 C   0  0  0  0  0  0  0  0  0  0  0  0
  1  2  1  0
  1  3  1  0
  2  4  2  0
  2  5  1  0
  3  6  1  0
  4  7  1  0
  4  8  1  0
  5  9  2  0
  6 10  1  0
  6 11  1  0
  7 12  3  0
  8 13  2  0
 11 14  1  0
 14 15  1  0
 15 16  1  0
 15 17  1  0
 15 18  1  0
 16 19  1  0
 19 20  2  0
 19 21  1  0
 20 22  1  0
 21 23  2  0
 22 24  2  0
 24 25  1  0
 25 26  1  0
  9 13  1  0
 23 24  1  0
M  END
>  <MolRegNo>  (1) 
499713

>  <m>  (1) 
=

>  <Value>  (1) 
36

>  <Unit>  (1) 
nM

>  <Type>  (1) 
IC50

>  <pValue>  (1) 
7.44

>  <Ligand Efficiency>  (1) 
0

>  <Binding Efficiency>  (1) 
0

>  <Surface Efficiency>  (1) 
0

>  <Assay Index>  (1) 
368882

>  <Assay Category>  (1) 


>  <Assay Organism>  (1) 


>  <Target ID>  (1) 
11365

>  <Target Name>  (1) 
Cytochrome P450 2D6

>  <Target Organism>  (1) 
Homo sapiens

>  <Target Description>  (1) 
Target is a single protein chain

>  <Sequence Accession>  (1) 
P10635

>  <Reference>  (1) 
J Med Chem 52 (13), 3982-3993 (2009)

>  <Pubmed ID>  (1) 
19492813

>  <DOI>  (1) 
10.1021/jm900364m

$$$$
