4wnv_ligand_897
     RDKit          2D

 29 32  0  0  0  0  0  0  0  0999 V2000
    0.0000   -0.0000   -0.0000 Cl  0  0  0  0  0  0  0  0  0  0  0  0
   -1.3118    0.7327   -0.0000 C   0  0  0  0  0  0  0  0  0  0  0  0
   -1.3472    2.2335   -0.0000 C   0  0  0  0  0  0  0  0  0  0  0  0
   -2.6117   -0.0236   -0.0000 C   0  0  0  0  0  0  0  0  0  0  0  0
   -2.6590    2.9662   -0.0000 C   0  0  0  0  0  0  0  0  0  0  0  0
   -3.9235    0.7209   -0.0000 C   0  0  0  0  0  0  0  0  0  0  0  0
   -2.6944    4.4671   -0.0000 N   0  0  0  0  0  0  0  0  0  0  0  0
   -3.9589    2.2217   -0.0000 C   0  0  0  0  0  0  0  0  0  0  0  0
   -4.0180    5.2116   -0.0000 C   0  0  0  0  0  0  0  0  0  0  0  0
   -5.2589    2.9662   -0.0000 C   0  0  0  0  0  0  0  0  0  0  0  0
   -5.3062    4.4553   -0.0000 C   0  0  0  0  0  0  0  0  0  0  0  0
   -6.5588    2.2099   -0.0000 N   0  0  0  0  0  0  0  0  0  0  0  0
   -7.8706    2.9544   -0.0000 C   0  0  0  0  0  0  0  0  0  0  0  0
   -9.1706    2.1981   -0.0000 C   0  0  0  0  0  0  0  0  0  0  0  0
  -10.4823    2.9426   -0.0000 N   0  0  0  0  0  0  0  0  0  0  0  0
  -11.7823    2.1863   -0.0000 C   0  0  0  0  0  0  0  0  0  0  0  0
  -11.7705    0.7091   -0.0000 O   0  0  0  0  0  0  0  0  0  0  0  0
  -13.0940    2.9308   -0.0000 C   0  0  0  0  0  0  0  0  0  0  0  0
  -14.3822    2.1863   -0.0000 C   0  0  0  0  0  0  0  0  0  0  0  0
  -14.8667    3.6162   -0.0000 O   0  0  0  0  0  0  0  0  0  0  0  0
  -15.5994    1.3118   -0.0000 C   0  0  0  0  0  0  0  0  0  0  0  0
  -13.6613    0.9218   -0.0000 C   0  0  0  0  0  0  0  0  0  0  0  0
  -16.3675    3.6162   -0.0000 O   0  0  0  0  0  0  0  0  0  0  0  0
  -16.8284    2.1863   -0.0000 C   0  0  0  0  0  0  0  0  0  0  0  0
  -18.1402    2.9544   -0.0000 C   0  0  0  0  0  0  0  0  0  0  0  0
  -16.8403    0.6972   -0.0000 C   0  0  0  0  0  0  0  0  0  0  0  0
  -19.4402    2.2099   -0.0000 C   0  0  0  0  0  0  0  0  0  0  0  0
  -18.1520   -0.0355   -0.0000 C   0  0  0  0  0  0  0  0  0  0  0  0
  -19.4520    0.7209   -0.0000 C   0  0  0  0  0  0  0  0  0  0  0  0
  1  2  1  0
  2  3  2  0
  2  4  1  0
  3  5  1  0
  4  6  2  0
  5  7  2  0
  5  8  1  0
  7  9  1  0
  8 10  2  0
  9 11  2  0
 10 12  1  0
 12 13  1  0
 13 14  1  0
 14 15  1  0
 15 16  1  0
 16 17  2  0
 16 18  1  0
 18 19  1  0
 19 20  1  0
 19 21  1  0
 19 22  1  0
 20 23  1  0
 21 24  1  0
 24 25  1  0
 24 26  1  0
 25 27  1  0
 26 28  1  0
 27 29  1  0
  6  8  1  0
 10 11  1  0
 23 24  1  0
 28 29  1  0
M  END
>  <MolRegNo>  (1) 
452343

>  <m>  (1) 
=

>  <Value>  (1) 
3900

>  <Unit>  (1) 
nM

>  <Type>  (1) 
IC50

>  <pValue>  (1) 
5.41

>  <Ligand Efficiency>  (1) 
0

>  <Binding Efficiency>  (1) 
0

>  <Surface Efficiency>  (1) 
0

>  <Assay Index>  (1) 
443679

>  <Assay Category>  (1) 


>  <Assay Organism>  (1) 
Homo sapiens

>  <Target ID>  (1) 
11365

>  <Target Name>  (1) 
Cytochrome P450 2D6

>  <Target Organism>  (1) 
Homo sapiens

>  <Target Description>  (1) 
Target is a single protein chain

>  <Sequence Accession>  (1) 
P10635

>  <Reference>  (1) 
Bioorg Med Chem Lett 19 (19), 5657-5660 (2009)

>  <Pubmed ID>  (1) 
19699641

>  <DOI>  (1) 
10.1016/j.bmcl.2009.08.024

$$$$
