4wnv_ligand_641
     RDKit          2D

 20 22  0  0  0  0  0  0  0  0999 V2000
    0.0000   -0.0000   -0.0000 O   0  0  0  0  0  0  0  0  0  0  0  0
    1.2818    0.7715   -0.0000 C   0  0  0  0  0  0  0  0  0  0  0  0
    0.0000   -1.4836   -0.0000 C   0  0  0  0  0  0  0  0  0  0  0  0
    1.2581    2.2788   -0.0000 C   0  0  0  0  0  0  0  0  0  0  0  0
    2.5756    0.0356   -0.0000 C   0  0  0  0  0  0  0  0  0  0  0  0
   -1.3056   -2.2314   -0.0000 C   0  0  0  0  0  0  0  0  0  0  0  0
    1.2937   -2.2195   -0.0000 C   0  0  0  0  0  0  0  0  0  0  0  0
    2.5400    3.0503   -0.0000 C   0  0  0  0  0  0  0  0  0  0  0  0
   -0.0593    3.0266   -0.0000 C   0  0  0  0  0  0  0  0  0  0  0  0
    3.8574    0.8071   -0.0000 C   0  0  0  0  0  0  0  0  0  0  0  0
   -1.3056   -3.7268   -0.0000 C   0  0  0  0  0  0  0  0  0  0  0  0
   -2.6230   -1.4717   -0.0000 C   0  0  0  0  0  0  0  0  0  0  0  0
    1.2937   -3.7150   -0.0000 C   0  0  0  0  0  0  0  0  0  0  0  0
    3.8455    2.3144   -0.0000 C   0  0  0  0  0  0  0  0  0  0  0  0
   -2.6230   -4.4746   -0.0000 C   0  0  0  0  0  0  0  0  0  0  0  0
   -0.0119   -4.4627   -0.0000 C   0  0  0  0  0  0  0  0  0  0  0  0
   -3.9286   -2.2076   -0.0000 C   0  0  0  0  0  0  0  0  0  0  0  0
    2.5874   -4.4508   -0.0000 N   0  0  0  0  0  0  0  0  0  0  0  0
   -3.9405   -3.7150   -0.0000 C   0  0  0  0  0  0  0  0  0  0  0  0
    2.5756   -5.9345   -0.0000 C   0  0  0  0  0  0  0  0  0  0  0  0
  1  2  1  0
  3  1  1  1
  2  4  2  0
  2  5  1  0
  3  6  1  0
  3  7  1  0
  4  8  1  0
  4  9  1  0
  5 10  2  0
  6 11  2  0
  6 12  1  0
  7 13  1  0
  8 14  2  0
 11 15  1  0
 11 16  1  0
 12 17  2  0
 13 18  1  6
 15 19  2  0
 18 20  1  0
 10 14  1  0
 13 16  1  0
 17 19  1  0
M  END
>  <MolRegNo>  (1) 
448063

>  <m>  (1) 
=

>  <Value>  (1) 
250

>  <Unit>  (1) 
nM

>  <Type>  (1) 
IC50

>  <pValue>  (1) 
6.6

>  <Ligand Efficiency>  (1) 
0

>  <Binding Efficiency>  (1) 
0

>  <Surface Efficiency>  (1) 
0

>  <Assay Index>  (1) 
340451

>  <Assay Category>  (1) 


>  <Assay Organism>  (1) 


>  <Target ID>  (1) 
11365

>  <Target Name>  (1) 
Cytochrome P450 2D6

>  <Target Organism>  (1) 
Homo sapiens

>  <Target Description>  (1) 
Target is a single protein chain

>  <Sequence Accession>  (1) 
P10635

>  <Reference>  (1) 
Bioorg Med Chem Lett 18 (14), 4224-4227 (2008)

>  <Pubmed ID>  (1) 
18550369

>  <DOI>  (1) 
10.1016/j.bmcl.2008.05.057

$$$$
