4wnv_ligand_108
     RDKit          2D

 12 13  0  0  0  0  0  0  0  0999 V2000
    0.0000   -0.0000   -0.0000 N   0  0  0  0  0  0  0  0  0  0  0  0
    1.3142   -0.7596   -0.0000 C   0  0  0  0  0  0  0  0  0  0  0  0
   -0.0121    1.5433   -0.0000 C   0  0  0  0  0  0  0  0  0  0  0  0
    2.6285    0.0121   -0.0000 C   0  0  0  0  0  0  0  0  0  0  0  0
    1.3022    2.3150   -0.0000 C   0  0  0  0  0  0  0  0  0  0  0  0
    3.9427   -0.7475   -0.0000 N   0  0  0  0  0  0  0  0  0  0  0  0
    2.6164    1.5554   -0.0000 C   0  0  0  0  0  0  0  0  0  0  0  0
    5.3172   -0.1085   -0.0000 C   0  0  0  0  0  0  0  0  0  0  0  0
    4.0633   -2.2426   -0.0000 C   0  0  0  0  0  0  0  0  0  0  0  0
    6.3300   -1.2419   -0.0000 N   0  0  0  0  0  0  0  0  0  0  0  0
    5.5584    1.0972   -0.0000 C   0  0  0  0  0  0  0  0  0  0  0  0
    5.5463   -2.5561   -0.0000 C   0  0  0  0  0  0  0  0  0  0  0  0
  1  2  2  0
  1  3  1  0
  2  4  1  0
  3  5  2  0
  4  6  1  0
  4  7  2  0
  6  8  1  0
  6  9  1  0
  8 10  2  0
  8 11  1  0
  9 12  2  0
  5  7  1  0
 10 12  1  0
M  END
>  <MolRegNo>  (1) 
299573

>  <m>  (1) 
=

>  <Value>  (1) 
277000

>  <Unit>  (1) 
nM

>  <Type>  (1) 
IC50

>  <pValue>  (1) 
0

>  <Ligand Efficiency>  (1) 
0

>  <Binding Efficiency>  (1) 
0

>  <Surface Efficiency>  (1) 
0

>  <Assay Index>  (1) 
238570

>  <Assay Category>  (1) 


>  <Assay Organism>  (1) 
Homo sapiens

>  <Target ID>  (1) 
11365

>  <Target Name>  (1) 
Cytochrome P450 2D6

>  <Target Organism>  (1) 
Homo sapiens

>  <Target Description>  (1) 
Target is a single protein chain

>  <Sequence Accession>  (1) 
P10635

>  <Reference>  (1) 
J Med Chem 48 (1), 224-239 (2005)

>  <Pubmed ID>  (1) 
15634016

>  <DOI>  (1) 
10.1021/jm049696n

$$$$
