4wnv_ligand_515
     RDKit          2D

 37 40  0  0  1  0  0  0  0  0999 V2000
    0.0000   -0.0000   -0.0000 F   0  0  0  0  0  0  0  0  0  0  0  0
    1.4940   -0.0000   -0.0000 C   0  0  0  0  0  0  0  0  0  0  0  0
    2.2292   -1.2925   -0.0000 C   0  0  0  0  0  0  0  0  0  0  0  0
    2.2411    1.3043   -0.0000 C   0  0  0  0  0  0  0  0  0  0  0  0
    3.7232   -1.2925   -0.0000 C   0  0  0  0  0  0  0  0  0  0  0  0
    3.7232    1.3162   -0.0000 C   0  0  0  0  0  0  0  0  0  0  0  0
    4.4703    0.0237   -0.0000 C   0  0  0  0  0  0  0  0  0  0  0  0
    5.9643    0.0356   -0.0000 C   0  0  0  0  0  0  0  0  0  0  0  0
    6.7113    1.3517   -0.0000 C   0  0  0  0  0  0  0  0  0  0  0  0
    8.2053    1.3636   -0.0000 C   0  0  0  0  0  0  0  0  0  0  0  0
    5.9406    2.6679   -0.0000 C   0  0  0  0  0  0  0  0  0  0  0  0
    8.9524    2.6679   -0.0000 N   0  0  0  0  0  0  0  0  0  0  0  0
    6.6876    3.9841   -0.0000 C   0  0  0  0  0  0  0  0  0  0  0  0
    8.1935    3.9841   -0.0000 C   0  0  0  0  0  0  0  0  0  0  0  0
   10.4464    2.6679   -0.0000 C   0  0  0  0  0  0  0  0  0  0  0  0
   11.1816    1.3755   -0.0000 C   0  0  0  0  0  0  0  0  0  0  0  0
   12.6756    1.3755   -0.0000 C   0  0  0  0  0  0  0  0  0  0  0  0
   13.4226    2.6916   -0.0000 N   0  0  0  0  0  0  0  0  0  0  0  0
   13.4108    0.0830   -0.0000 C   0  0  0  0  0  0  0  0  0  0  0  0
   14.9166    2.6916   -0.0000 C   0  0  0  0  0  0  0  0  0  0  0  0
   15.6518    1.3992   -0.0000 O   0  0  0  0  0  0  0  0  0  0  0  0
   15.6637    4.0078   -0.0000 N   0  0  0  0  0  0  0  0  0  0  0  0
   17.1577    4.0078   -0.0000 C   0  0  0  0  0  0  0  0  0  0  0  0
   17.8810    2.7154   -0.0000 C   0  0  0  0  0  0  0  0  0  0  0  0
   17.8929    5.3240   -0.0000 C   0  0  0  0  0  0  0  0  0  0  0  0
   19.3750    2.7154   -0.0000 C   0  0  0  0  0  0  0  0  0  0  0  0
   19.3869    5.3358   -0.0000 C   0  0  0  0  0  0  0  0  0  0  0  0
   20.1221    1.4229   -0.0000 C   0  0  0  0  0  0  0  0  0  0  0  0
   20.1221    4.0315   -0.0000 C   0  0  0  0  0  0  0  0  0  0  0  0
   20.1339    6.6520   -0.0000 C   0  0  0  0  0  0  0  0  0  0  0  0
   21.6042    1.2687   -0.0000 N   0  0  0  0  0  0  0  0  0  0  0  0
   19.4936    0.0593   -0.0000 N   0  0  0  0  0  0  0  0  0  0  0  0
   21.6280    6.6639   -0.0000 C   0  0  0  0  0  0  0  0  0  0  0  0
   19.3750    7.9682   -0.0000 C   0  0  0  0  0  0  0  0  0  0  0  0
   21.9007   -0.1897   -0.0000 N   0  0  0  0  0  0  0  0  0  0  0  0
   20.5964   -0.9486   -0.0000 N   0  0  0  0  0  0  0  0  0  0  0  0
   18.0114   -0.2371   -0.0000 C   0  0  0  0  0  0  0  0  0  0  0  0
  1  2  1  0
  2  3  2  0
  2  4  1  0
  3  5  1  0
  4  6  2  0
  5  7  2  0
  7  8  1  0
  9  8  1  6
  9 10  1  0
  9 11  1  0
 10 12  1  0
 11 13  1  0
 12 14  1  0
 12 15  1  0
 15 16  1  0
 16 17  1  0
 17 18  1  0
 17 19  1  6
 18 20  1  0
 20 21  2  0
 20 22  1  0
 22 23  1  0
 23 24  2  0
 23 25  1  0
 24 26  1  0
 25 27  2  0
 26 28  1  0
 26 29  2  0
 27 30  1  0
 28 31  2  0
 28 32  1  0
 30 33  1  0
 30 34  1  0
 31 35  1  0
 32 36  1  0
 32 37  1  0
  6  7  1  0
 13 14  1  0
 27 29  1  0
 35 36  2  0
M  END
>  <MolRegNo>  (1) 
437716

>  <m>  (1) 
=

>  <Value>  (1) 
1600

>  <Unit>  (1) 
nM

>  <Type>  (1) 
IC50

>  <pValue>  (1) 
5.8

>  <Ligand Efficiency>  (1) 
0

>  <Binding Efficiency>  (1) 
0

>  <Surface Efficiency>  (1) 
0

>  <Assay Index>  (1) 
314783

>  <Assay Category>  (1) 


>  <Assay Organism>  (1) 


>  <Target ID>  (1) 
11365

>  <Target Name>  (1) 
Cytochrome P450 2D6

>  <Target Organism>  (1) 
Homo sapiens

>  <Target Description>  (1) 
Target is a single protein chain

>  <Sequence Accession>  (1) 
P10635

>  <Reference>  (1) 
Bioorg Med Chem Lett 18 (2), 576-585 (2008)

>  <Pubmed ID>  (1) 
18096386

>  <DOI>  (1) 
10.1016/j.bmcl.2007.11.067

$$$$
