4wnv_ligand_931
     RDKit          2D

 35 40  0  0  0  0  0  0  0  0999 V2000
    0.0000   -0.0000   -0.0000 O   0  0  0  0  0  0  0  0  0  0  0  0
    0.8762   -1.2078   -0.0000 C   0  0  0  0  0  0  0  0  0  0  0  0
   -1.4446   -0.4500   -0.0000 C   0  0  0  0  0  0  0  0  0  0  0  0
   -0.0237   -2.4156   -0.0000 C   0  0  0  0  0  0  0  0  0  0  0  0
   -1.4565   -1.9419   -0.0000 C   0  0  0  0  0  0  0  0  0  0  0  0
    0.4263   -3.8365   -0.0000 C   0  0  0  0  0  0  0  0  0  0  0  0
    1.8827   -4.1325   -0.0000 N   0  0  0  0  0  0  0  0  0  0  0  0
   -0.5921   -4.9377   -0.0000 C   0  0  0  0  0  0  0  0  0  0  0  0
    2.3327   -5.5535   -0.0000 C   0  0  0  0  0  0  0  0  0  0  0  0
   -2.0722   -4.6180   -0.0000 C   0  0  0  0  0  0  0  0  0  0  0  0
   -0.1421   -6.3587   -0.0000 C   0  0  0  0  0  0  0  0  0  0  0  0
    1.3144   -6.6547   -0.0000 C   0  0  0  0  0  0  0  0  0  0  0  0
   -2.5458   -3.1734   -0.0000 C   0  0  0  0  0  0  0  0  0  0  0  0
   -3.0905   -5.7192   -0.0000 C   0  0  0  0  0  0  0  0  0  0  0  0
    1.7643   -8.0756   -0.0000 O   0  0  0  0  0  0  0  0  0  0  0  0
   -4.0260   -2.8537   -0.0000 C   0  0  0  0  0  0  0  0  0  0  0  0
   -4.5707   -5.3995   -0.0000 C   0  0  0  0  0  0  0  0  0  0  0  0
    3.2208   -8.3716   -0.0000 C   0  0  0  0  0  0  0  0  0  0  0  0
   -5.0443   -3.9549   -0.0000 C   0  0  0  0  0  0  0  0  0  0  0  0
   -4.7838   -1.5393   -0.0000 C   0  0  0  0  0  0  0  0  0  0  0  0
    3.6707   -9.7926   -0.0000 C   0  0  0  0  0  0  0  0  0  0  0  0
   -6.4297   -3.3273   -0.0000 N   0  0  0  0  0  0  0  0  0  0  0  0
   -6.2639   -1.8354   -0.0000 N   0  0  0  0  0  0  0  0  0  0  0  0
   -4.1799   -0.1539   -0.0000 C   0  0  0  0  0  0  0  0  0  0  0  0
    2.6524  -10.8938   -0.0000 N   0  0  0  0  0  0  0  0  0  0  0  0
    5.1272  -10.0886   -0.0000 C   0  0  0  0  0  0  0  0  0  0  0  0
    5.5771  -11.5095   -0.0000 C   0  0  0  0  0  0  0  0  0  0  0  0
    6.9981  -11.9595   -0.0000 C   0  0  0  0  0  0  0  0  0  0  0  0
    4.6772  -12.7173   -0.0000 C   0  0  0  0  0  0  0  0  0  0  0  0
    6.9862  -13.4515   -0.0000 C   0  0  0  0  0  0  0  0  0  0  0  0
    8.2887  -11.2016   -0.0000 C   0  0  0  0  0  0  0  0  0  0  0  0
    5.5535  -13.9251   -0.0000 N   0  0  0  0  0  0  0  0  0  0  0  0
    8.2769  -14.1974   -0.0000 C   0  0  0  0  0  0  0  0  0  0  0  0
    9.5794  -11.9358   -0.0000 C   0  0  0  0  0  0  0  0  0  0  0  0
    9.5676  -13.4278   -0.0000 C   0  0  0  0  0  0  0  0  0  0  0  0
  1  2  1  0
  1  3  1  0
  2  4  2  0
  3  5  2  0
  4  6  1  0
  6  7  2  0
  6  8  1  0
  7  9  1  0
  8 10  1  0
  8 11  2  0
  9 12  2  0
 10 13  2  0
 10 14  1  0
 12 15  1  0
 13 16  1  0
 14 17  2  0
 15 18  1  0
 16 19  1  0
 16 20  2  0
 18 21  1  0
 19 22  2  0
 20 23  1  0
 20 24  1  0
 21 25  1  6
 21 26  1  0
 26 27  1  0
 27 28  1  0
 27 29  2  0
 28 30  2  0
 28 31  1  0
 29 32  1  0
 30 33  1  0
 31 34  2  0
 33 35  2  0
  4  5  1  0
 11 12  1  0
 17 19  1  0
 22 23  1  0
 30 32  1  0
 34 35  1  0
M  END
>  <MolRegNo>  (1) 
591570

>  <m>  (1) 
=

>  <Value>  (1) 
5000

>  <Unit>  (1) 
nM

>  <Type>  (1) 
IC50

>  <pValue>  (1) 
5.3

>  <Ligand Efficiency>  (1) 
0

>  <Binding Efficiency>  (1) 
0

>  <Surface Efficiency>  (1) 
0

>  <Assay Index>  (1) 
450771

>  <Assay Category>  (1) 


>  <Assay Organism>  (1) 


>  <Target ID>  (1) 
11365

>  <Target Name>  (1) 
Cytochrome P450 2D6

>  <Target Organism>  (1) 
Homo sapiens

>  <Target Description>  (1) 
Target is a single protein chain

>  <Sequence Accession>  (1) 
P10635

>  <Reference>  (1) 
Bioorg Med Chem Lett 20 (2), 679-683 (2010)

>  <Pubmed ID>  (1) 
20005102

>  <DOI>  (1) 
10.1016/j.bmcl.2009.11.060

$$$$
