4wnv_ligand_473
     RDKit          2D

 42 46  0  0  1  0  0  0  0  0999 V2000
    0.0000   -0.0000   -0.0000 S   0  0  0  0  0  0  0  0  0  0  0  0
    1.2042    0.8942   -0.0000 C   0  0  0  0  0  0  0  0  0  0  0  0
    0.4531   -1.4188   -0.0000 C   0  0  0  0  0  0  0  0  0  0  0  0
    2.4084    0.0238   -0.0000 N   0  0  0  0  0  0  0  0  0  0  0  0
    1.1923    2.4084   -0.0000 N   0  0  0  0  0  0  0  0  0  0  0  0
    1.9434   -1.4069   -0.0000 C   0  0  0  0  0  0  0  0  0  0  0  0
   -0.3338   -2.6826   -0.0000 C   0  0  0  0  0  0  0  0  0  0  0  0
   -0.1192    3.1833   -0.0000 C   0  0  0  0  0  0  0  0  0  0  0  0
    2.8137   -2.5991   -0.0000 C   0  0  0  0  0  0  0  0  0  0  0  0
   -1.8480   -2.6468   -0.0000 O   0  0  0  0  0  0  0  0  0  0  0  0
    0.3815   -3.9821   -0.0000 C   0  0  0  0  0  0  0  0  0  0  0  0
   -1.4307    2.4441   -0.0000 O   0  0  0  0  0  0  0  0  0  0  0  0
   -0.1311    4.6975   -0.0000 N   0  0  0  0  0  0  0  0  0  0  0  0
   -1.4426    5.4605   -0.0000 C   0  0  0  0  0  0  0  0  0  0  0  0
   -1.4546    6.9747   -0.0000 C   0  0  0  0  0  0  0  0  0  0  0  0
   -2.7541    4.7333   -0.0000 C   0  0  0  0  0  0  0  0  0  0  0  0
   -2.7660    7.7497   -0.0000 C   0  0  0  0  0  0  0  0  0  0  0  0
   -0.1550    7.7378   -0.0000 C   0  0  0  0  0  0  0  0  0  0  0  0
   -4.0656    5.4844   -0.0000 N   0  0  0  0  0  0  0  0  0  0  0  0
   -4.0775    6.9986   -0.0000 C   0  0  0  0  0  0  0  0  0  0  0  0
    1.1326    6.9866   -0.0000 N   0  0  0  0  0  0  0  0  0  0  0  0
   -5.3771    4.7571   -0.0000 C   0  0  0  0  0  0  0  0  0  0  0  0
    2.4203    7.7497   -0.0000 C   0  0  0  0  0  0  0  0  0  0  0  0
    1.1207    5.4844   -0.0000 C   0  0  0  0  0  0  0  0  0  0  0  0
   -5.3890    3.2668   -0.0000 O   0  0  0  0  0  0  0  0  0  0  0  0
   -6.6766    5.5202   -0.0000 C   0  0  0  0  0  0  0  0  0  0  0  0
    3.7079    6.9986   -0.0000 C   0  0  0  0  0  0  0  0  0  0  0  0
    2.4084    4.7452   -0.0000 C   0  0  0  0  0  0  0  0  0  0  0  0
   -7.9881    4.7810   -0.0000 C   0  0  0  0  0  0  0  0  0  0  0  0
   -6.6886    7.0224   -0.0000 C   0  0  0  0  0  0  0  0  0  0  0  0
    3.6841    5.5082   -0.0000 C   0  0  0  0  0  0  0  0  0  0  0  0
    5.0075    7.7616   -0.0000 C   0  0  0  0  0  0  0  0  0  0  0  0
   -9.2877    5.5440   -0.0000 C   0  0  0  0  0  0  0  0  0  0  0  0
   -8.0001    7.7854   -0.0000 C   0  0  0  0  0  0  0  0  0  0  0  0
    6.2951    7.0105   -0.0000 C   0  0  0  0  0  0  0  0  0  0  0  0
   -9.2996    7.0582   -0.0000 O   0  0  0  0  0  0  0  0  0  0  0  0
    6.2594    5.5202   -0.0000 C   0  0  0  0  0  0  0  0  0  0  0  0
    7.5828    7.7735   -0.0000 C   0  0  0  0  0  0  0  0  0  0  0  0
    7.5470    4.7810   -0.0000 C   0  0  0  0  0  0  0  0  0  0  0  0
    8.8704    7.0224   -0.0000 C   0  0  0  0  0  0  0  0  0  0  0  0
    8.8466    5.5321   -0.0000 C   0  0  0  0  0  0  0  0  0  0  0  0
   10.1342    4.7929   -0.0000 F   0  0  0  0  0  0  0  0  0  0  0  0
  1  2  1  0
  1  3  1  0
  2  4  2  0
  2  5  1  0
  3  6  2  0
  3  7  1  0
  5  8  1  0
  6  9  1  0
  7 10  2  0
  7 11  1  0
  8 12  2  0
  8 13  1  0
 14 13  1  6
 14 15  1  0
 14 16  1  0
 15 17  1  0
 15 18  1  1
 16 19  1  0
 17 20  1  0
 18 21  1  0
 19 22  1  0
 21 23  1  0
 21 24  1  0
 22 25  2  0
 22 26  1  0
 23 27  1  0
 24 28  1  0
 26 29  1  0
 26 30  1  0
 27 31  1  0
 27 32  1  6
 29 33  1  0
 30 34  1  0
 32 35  1  0
 33 36  1  0
 35 37  2  0
 35 38  1  0
 37 39  1  0
 38 40  2  0
 39 41  2  0
 41 42  1  0
  4  6  1  0
 19 20  1  0
 28 31  1  0
 34 36  1  0
 40 41  1  0
M  END
>  <MolRegNo>  (1) 
421565

>  <m>  (1) 
=

>  <Value>  (1) 
1800

>  <Unit>  (1) 
nM

>  <Type>  (1) 
IC50

>  <pValue>  (1) 
5.75

>  <Ligand Efficiency>  (1) 
0

>  <Binding Efficiency>  (1) 
0

>  <Surface Efficiency>  (1) 
0

>  <Assay Index>  (1) 
307824

>  <Assay Category>  (1) 


>  <Assay Organism>  (1) 
Homo sapiens

>  <Target ID>  (1) 
11365

>  <Target Name>  (1) 
Cytochrome P450 2D6

>  <Target Organism>  (1) 
Homo sapiens

>  <Target Description>  (1) 
Target is a single protein chain

>  <Sequence Accession>  (1) 
P10635

>  <Reference>  (1) 
Bioorg Med Chem Lett 17 (11), 2992-2997 (2007)

>  <Pubmed ID>  (1) 
17418570

>  <DOI>  (1) 
10.1016/j.bmcl.2007.03.065

$$$$
