4wnv_ligand_751
     RDKit          2D

 22 24  0  0  0  0  0  0  0  0999 V2000
    0.0000   -0.0000   -0.0000 F   0  0  0  0  0  0  0  0  0  0  0  0
   -1.4719   -0.2968   -0.0000 C   0  0  0  0  0  0  0  0  0  0  0  0
   -2.4928    0.8309   -0.0000 C   0  0  0  0  0  0  0  0  0  0  0  0
   -1.9468   -1.7093   -0.0000 C   0  0  0  0  0  0  0  0  0  0  0  0
   -3.9647    0.5223   -0.0000 C   0  0  0  0  0  0  0  0  0  0  0  0
   -3.4187   -2.0061   -0.0000 C   0  0  0  0  0  0  0  0  0  0  0  0
   -4.4277   -0.8784   -0.0000 C   0  0  0  0  0  0  0  0  0  0  0  0
   -4.9856    1.6381   -0.0000 C   0  0  0  0  0  0  0  0  0  0  0  0
   -5.8996   -1.1752   -0.0000 O   0  0  0  0  0  0  0  0  0  0  0  0
   -6.3744   -2.5878   -0.0000 C   0  0  0  0  0  0  0  0  0  0  0  0
   -7.8226   -3.0388   -0.0000 C   0  0  0  0  0  0  0  0  0  0  0  0
   -5.4960   -3.7985   -0.0000 C   0  0  0  0  0  0  0  0  0  0  0  0
   -7.8345   -4.5345   -0.0000 C   0  0  0  0  0  0  0  0  0  0  0  0
   -9.1284   -2.2791   -0.0000 C   0  0  0  0  0  0  0  0  0  0  0  0
   -4.4514   -2.7183   -0.0000 O   0  0  0  0  0  0  0  0  0  0  0  0
   -6.3982   -5.0093   -0.0000 C   0  0  0  0  0  0  0  0  0  0  0  0
   -4.2140   -4.5345   -0.0000 C   0  0  0  0  0  0  0  0  0  0  0  0
   -9.1403   -5.2705   -0.0000 C   0  0  0  0  0  0  0  0  0  0  0  0
  -10.4341   -3.0151   -0.0000 C   0  0  0  0  0  0  0  0  0  0  0  0
   -4.2259   -6.0183   -0.0000 N   0  0  0  0  0  0  0  0  0  0  0  0
  -10.4460   -4.5108   -0.0000 C   0  0  0  0  0  0  0  0  0  0  0  0
   -2.9439   -6.7543   -0.0000 C   0  0  0  0  0  0  0  0  0  0  0  0
  1  2  1  0
  2  3  2  0
  2  4  1  0
  3  5  1  0
  4  6  2  0
  5  7  2  0
  5  8  1  0
  7  9  1  0
 10  9  1  6
 10 11  1  0
 10 12  1  0
 11 13  2  0
 11 14  1  0
 12 15  1  1
 12 16  1  0
 12 17  1  0
 13 18  1  0
 14 19  2  0
 17 20  1  0
 18 21  2  0
 20 22  1  0
  6  7  1  0
 13 16  1  0
 19 21  1  0
M  END
>  <MolRegNo>  (1) 
452514

>  <m>  (1) 
=

>  <Value>  (1) 
1500

>  <Unit>  (1) 
nM

>  <Type>  (1) 
IC50

>  <pValue>  (1) 
5.82

>  <Ligand Efficiency>  (1) 
0

>  <Binding Efficiency>  (1) 
0

>  <Surface Efficiency>  (1) 
0

>  <Assay Index>  (1) 
407281

>  <Assay Category>  (1) 


>  <Assay Organism>  (1) 


>  <Target ID>  (1) 
11365

>  <Target Name>  (1) 
Cytochrome P450 2D6

>  <Target Organism>  (1) 
Homo sapiens

>  <Target Description>  (1) 
Target is a single protein chain

>  <Sequence Accession>  (1) 
P10635

>  <Reference>  (1) 
Bioorg Med Chem Lett 18 (23), 6151-6155 (2008)

>  <Pubmed ID>  (1) 
18954981

>  <DOI>  (1) 
10.1016/j.bmcl.2008.10.013

$$$$
