4wnv_ligand_858
     RDKit          2D

 29 31  0  0  0  0  0  0  0  0999 V2000
    0.0000   -0.0000   -0.0000 F   0  0  0  0  0  0  0  0  0  0  0  0
   -1.0905    0.6371   -0.0000 C   0  0  0  0  0  0  0  0  0  0  0  0
   -1.1027    2.2054   -0.0000 C   0  0  0  0  0  0  0  0  0  0  0  0
   -2.4505   -0.1225   -0.0000 C   0  0  0  0  0  0  0  0  0  0  0  0
   -0.0368    2.8425   -0.0000 F   0  0  0  0  0  0  0  0  0  0  0  0
   -2.4627    2.9896   -0.0000 C   0  0  0  0  0  0  0  0  0  0  0  0
   -3.8105    0.6616   -0.0000 C   0  0  0  0  0  0  0  0  0  0  0  0
   -3.8227    2.2299   -0.0000 C   0  0  0  0  0  0  0  0  0  0  0  0
   -4.9009    0.0490   -0.0000 F   0  0  0  0  0  0  0  0  0  0  0  0
   -5.1827    3.0263   -0.0000 C   0  0  0  0  0  0  0  0  0  0  0  0
   -5.1950    4.5946   -0.0000 C   0  0  0  0  0  0  0  0  0  0  0  0
   -4.1290    5.2317   -0.0000 N   0  0  0  0  0  0  0  0  0  0  0  0
   -6.5550    5.3910   -0.0000 C   0  0  0  0  0  0  0  0  0  0  0  0
   -6.5672    6.9593   -0.0000 C   0  0  0  0  0  0  0  0  0  0  0  0
   -5.5013    7.5964   -0.0000 O   0  0  0  0  0  0  0  0  0  0  0  0
   -7.9272    7.7557   -0.0000 N   0  0  0  0  0  0  0  0  0  0  0  0
   -8.0865    9.2995   -0.0000 C   0  0  0  0  0  0  0  0  0  0  0  0
   -9.3363    7.1186   -0.0000 C   0  0  0  0  0  0  0  0  0  0  0  0
   -9.6181    9.6303   -0.0000 C   0  0  0  0  0  0  0  0  0  0  0  0
   -6.9348   10.3409   -0.0000 C   0  0  0  0  0  0  0  0  0  0  0  0
  -10.3900    8.2826   -0.0000 C   0  0  0  0  0  0  0  0  0  0  0  0
   -7.2656   11.8725   -0.0000 N   0  0  0  0  0  0  0  0  0  0  0  0
   -6.1139   12.9139   -0.0000 C   0  0  0  0  0  0  0  0  0  0  0  0
   -4.6559   12.4361   -0.0000 N   0  0  0  0  0  0  0  0  0  0  0  0
   -6.4325   14.4455   -0.0000 C   0  0  0  0  0  0  0  0  0  0  0  0
   -3.5042   13.4775   -0.0000 C   0  0  0  0  0  0  0  0  0  0  0  0
   -5.2807   15.4869   -0.0000 C   0  0  0  0  0  0  0  0  0  0  0  0
   -3.8227   15.0091   -0.0000 C   0  0  0  0  0  0  0  0  0  0  0  0
   -2.9038   15.8422   -0.0000 F   0  0  0  0  0  0  0  0  0  0  0  0
  1  2  1  0
  2  3  2  0
  2  4  1  0
  3  5  1  0
  3  6  1  0
  4  7  2  0
  6  8  2  0
  7  9  1  0
  8 10  1  0
 10 11  1  0
 11 12  1  1
 11 13  1  0
 13 14  1  0
 14 15  2  0
 14 16  1  0
 16 17  1  0
 16 18  1  0
 17 19  1  0
 17 20  1  6
 18 21  1  0
 20 22  1  0
 22 23  1  0
 23 24  2  0
 23 25  1  0
 24 26  1  0
 25 27  2  0
 26 28  2  0
 28 29  1  0
  7  8  1  0
 19 21  1  0
 27 28  1  0
M  END
>  <MolRegNo>  (1) 
567824

>  <m>  (1) 
=

>  <Value>  (1) 
800

>  <Unit>  (1) 
nM

>  <Type>  (1) 
IC50

>  <pValue>  (1) 
6.1

>  <Ligand Efficiency>  (1) 
0

>  <Binding Efficiency>  (1) 
0

>  <Surface Efficiency>  (1) 
0

>  <Assay Index>  (1) 
428036

>  <Assay Category>  (1) 


>  <Assay Organism>  (1) 
Homo sapiens

>  <Target ID>  (1) 
11365

>  <Target Name>  (1) 
Cytochrome P450 2D6

>  <Target Organism>  (1) 
Homo sapiens

>  <Target Description>  (1) 
Target is a single protein chain

>  <Sequence Accession>  (1) 
P10635

>  <Reference>  (1) 
Bioorg Med Chem Lett 19 (16), 4818-4823 (2009)

>  <Pubmed ID>  (1) 
19576767

>  <DOI>  (1) 
10.1016/j.bmcl.2009.06.036

$$$$
