4wnv_ligand_348
     RDKit          2D

 34 36  0  0  0  0  0  0  0  0999 V2000
    0.0000   -0.0000   -0.0000 F   0  0  0  0  0  0  0  0  0  0  0  0
    1.2921   -0.7417   -0.0000 C   0  0  0  0  0  0  0  0  0  0  0  0
    2.5841    0.0239   -0.0000 C   0  0  0  0  0  0  0  0  0  0  0  0
    1.2801   -2.2491   -0.0000 C   0  0  0  0  0  0  0  0  0  0  0  0
    2.5722    1.5433   -0.0000 F   0  0  0  0  0  0  0  0  0  0  0  0
    3.8762   -0.7178   -0.0000 C   0  0  0  0  0  0  0  0  0  0  0  0
    2.5722   -2.9909   -0.0000 C   0  0  0  0  0  0  0  0  0  0  0  0
    3.8642   -2.2252   -0.0000 C   0  0  0  0  0  0  0  0  0  0  0  0
    2.5602   -4.4863   -0.0000 F   0  0  0  0  0  0  0  0  0  0  0  0
    5.1563   -2.9669   -0.0000 C   0  0  0  0  0  0  0  0  0  0  0  0
    6.4483   -2.2013   -0.0000 C   0  0  0  0  0  0  0  0  0  0  0  0
    5.1443   -4.4624   -0.0000 C   0  0  0  0  0  0  0  0  0  0  0  0
    6.4364   -0.6819   -0.0000 N   0  0  0  0  0  0  0  0  0  0  0  0
    7.7404   -2.9550   -0.0000 C   0  0  0  0  0  0  0  0  0  0  0  0
    6.4364   -5.2041   -0.0000 C   0  0  0  0  0  0  0  0  0  0  0  0
    7.7284   -4.4504   -0.0000 N   0  0  0  0  0  0  0  0  0  0  0  0
    9.0205   -5.1922   -0.0000 C   0  0  0  0  0  0  0  0  0  0  0  0
   10.3125   -4.4265   -0.0000 N   0  0  0  0  0  0  0  0  0  0  0  0
    9.0085   -6.6876   -0.0000 C   0  0  0  0  0  0  0  0  0  0  0  0
   11.6046   -5.1563   -0.0000 N   0  0  0  0  0  0  0  0  0  0  0  0
   10.3006   -7.4293   -0.0000 C   0  0  0  0  0  0  0  0  0  0  0  0
   11.5926   -6.6637   -0.0000 C   0  0  0  0  0  0  0  0  0  0  0  0
   12.8967   -4.3786   -0.0000 C   0  0  0  0  0  0  0  0  0  0  0  0
   12.8847   -7.4054   -0.0000 N   0  0  0  0  0  0  0  0  0  0  0  0
   14.2007   -5.1323   -0.0000 C   0  0  0  0  0  0  0  0  0  0  0  0
   14.1887   -6.6397   -0.0000 C   0  0  0  0  0  0  0  0  0  0  0  0
   15.4808   -7.3815   -0.0000 O   0  0  0  0  0  0  0  0  0  0  0  0
   11.5807   -0.4785   -0.0000 F   0  0  0  0  0  0  0  0  0  0  0  0
   12.8847    0.2752   -0.0000 C   0  0  0  0  0  0  0  0  0  0  0  0
   13.6264   -1.0169   -0.0000 F   0  0  0  0  0  0  0  0  0  0  0  0
   12.1190    1.5911   -0.0000 F   0  0  0  0  0  0  0  0  0  0  0  0
   14.1768    1.0408   -0.0000 C   0  0  0  0  0  0  0  0  0  0  0  0
   14.1648    2.5602   -0.0000 O   0  0  0  0  0  0  0  0  0  0  0  0
   15.4688    0.2991   -0.0000 O   0  0  0  0  0  0  0  0  0  0  0  0
  1  2  1  0
  2  3  2  0
  2  4  1  0
  3  5  1  0
  3  6  1  0
  4  7  2  0
  6  8  2  0
  7  9  1  0
 10  8  1  6
 10 11  1  0
 10 12  1  0
 11 13  1  1
 11 14  1  0
 12 15  1  0
 14 16  1  0
 16 17  1  0
 17 18  2  0
 17 19  1  0
 18 20  1  0
 19 21  2  0
 20 22  1  0
 20 23  1  0
 22 24  2  0
 23 25  2  0
 24 26  1  0
 26 27  2  0
 28 29  1  0
 29 30  1  0
 29 31  1  0
 29 32  1  0
 32 33  2  0
 32 34  1  0
  7  8  1  0
 15 16  1  0
 21 22  1  0
 25 26  1  0
M  END
>  <MolRegNo>  (1) 
385315

>  <m>  (1) 
=

>  <Value>  (1) 
55400

>  <Unit>  (1) 
nM

>  <Type>  (1) 
IC50

>  <pValue>  (1) 
4.26

>  <Ligand Efficiency>  (1) 
0

>  <Binding Efficiency>  (1) 
0

>  <Surface Efficiency>  (1) 
0

>  <Assay Index>  (1) 
288258

>  <Assay Category>  (1) 


>  <Assay Organism>  (1) 


>  <Target ID>  (1) 
11365

>  <Target Name>  (1) 
Cytochrome P450 2D6

>  <Target Organism>  (1) 
Homo sapiens

>  <Target Description>  (1) 
Target is a single protein chain

>  <Sequence Accession>  (1) 
P10635

>  <Reference>  (1) 
Bioorg Med Chem Lett 17 (16), 4579-4583 (2007)

>  <Pubmed ID>  (1) 
17562364

>  <DOI>  (1) 
10.1016/j.bmcl.2007.05.087

$$$$
