4wnv_ligand_1073
     RDKit          2D

 23 25  0  0  0  0  0  0  0  0999 V2000
    0.0000   -0.0000   -0.0000 F   0  0  0  0  0  0  0  0  0  0  0  0
   -0.0118    1.4979   -0.0000 C   0  0  0  0  0  0  0  0  0  0  0  0
    1.2738    2.2645   -0.0000 C   0  0  0  0  0  0  0  0  0  0  0  0
   -1.3210    2.2527   -0.0000 C   0  0  0  0  0  0  0  0  0  0  0  0
    2.6891    1.8281   -0.0000 N   0  0  0  0  0  0  0  0  0  0  0  0
    1.2502    3.7742   -0.0000 C   0  0  0  0  0  0  0  0  0  0  0  0
   -1.3327    3.7624   -0.0000 C   0  0  0  0  0  0  0  0  0  0  0  0
    3.5501    3.0547   -0.0000 C   0  0  0  0  0  0  0  0  0  0  0  0
   -0.0590    4.5290   -0.0000 C   0  0  0  0  0  0  0  0  0  0  0  0
    2.6655    4.2577   -0.0000 C   0  0  0  0  0  0  0  0  0  0  0  0
   -2.6301    4.5172   -0.0000 C   0  0  0  0  0  0  0  0  0  0  0  0
   -2.6419    6.0151   -0.0000 O   0  0  0  0  0  0  0  0  0  0  0  0
   -3.9275    3.7860   -0.0000 C   0  0  0  0  0  0  0  0  0  0  0  0
   -4.0926    2.3117   -0.0000 C   0  0  0  0  0  0  0  0  0  0  0  0
   -5.3074    4.3993   -0.0000 C   0  0  0  0  0  0  0  0  0  0  0  0
   -4.3403    5.2484   -0.0000 C   0  0  0  0  0  0  0  0  0  0  0  0
   -5.5669    2.0168   -0.0000 N   0  0  0  0  0  0  0  0  0  0  0  0
   -6.3217    3.3024   -0.0000 C   0  0  0  0  0  0  0  0  0  0  0  0
   -5.7910    5.6376   -0.0000 C   0  0  0  0  0  0  0  0  0  0  0  0
   -6.1920    7.0883   -0.0000 C   0  0  0  0  0  0  0  0  0  0  0  0
   -5.1541    8.1616   -0.0000 C   0  0  0  0  0  0  0  0  0  0  0  0
   -7.6427    7.4775   -0.0000 C   0  0  0  0  0  0  0  0  0  0  0  0
   -6.5930    8.5508   -0.0000 C   0  0  0  0  0  0  0  0  0  0  0  0
  1  2  1  0
  2  3  2  0
  2  4  1  0
  3  5  1  0
  3  6  1  0
  4  7  2  0
  5  8  1  0
  6  9  2  0
  6 10  1  0
  7 11  1  0
 11 12  2  0
 11 13  1  0
 13 14  1  0
 13 15  1  0
 13 16  1  0
 14 17  1  0
 15 18  1  0
 16 19  1  0
 19 20  1  0
 20 21  1  0
 20 22  1  0
 20 23  1  0
  7  9  1  0
  8 10  2  0
 17 18  1  0
M  END
>  <MolRegNo>  (1) 
690776

>  <m>  (1) 
=

>  <Value>  (1) 
1800

>  <Unit>  (1) 
nM

>  <Type>  (1) 
IC50

>  <pValue>  (1) 
5.75

>  <Ligand Efficiency>  (1) 
0

>  <Binding Efficiency>  (1) 
0

>  <Surface Efficiency>  (1) 
0

>  <Assay Index>  (1) 
497257

>  <Assay Category>  (1) 


>  <Assay Organism>  (1) 


>  <Target ID>  (1) 
11365

>  <Target Name>  (1) 
Cytochrome P450 2D6

>  <Target Organism>  (1) 
Homo sapiens

>  <Target Description>  (1) 
Target is a single protein chain

>  <Sequence Accession>  (1) 
P10635

>  <Reference>  (1) 
Bioorg Med Chem Lett 20 (18), 5559-5566 (2010)

>  <Pubmed ID>  (1) 
20691589

>  <DOI>  (1) 
10.1016/j.bmcl.2010.07.020

$$$$
