4wnv_ligand_977
     RDKit          2D

 29 32  0  0  0  0  0  0  0  0999 V2000
    0.0000   -0.0000   -0.0000 O   0  0  0  0  0  0  0  0  0  0  0  0
   -1.3151    0.7701   -0.0000 C   0  0  0  0  0  0  0  0  0  0  0  0
   -1.3269    2.2748   -0.0000 N   0  0  0  0  0  0  0  0  0  0  0  0
   -2.6183    0.0355   -0.0000 N   0  0  0  0  0  0  0  0  0  0  0  0
   -0.0592    3.0449   -0.0000 C   0  0  0  0  0  0  0  0  0  0  0  0
   -2.6420    3.0449   -0.0000 C   0  0  0  0  0  0  0  0  0  0  0  0
   -2.6302   -1.4454   -0.0000 C   0  0  0  0  0  0  0  0  0  0  0  0
   -0.0592    4.5495   -0.0000 C   0  0  0  0  0  0  0  0  0  0  0  0
   -2.6539    4.5495   -0.0000 C   0  0  0  0  0  0  0  0  0  0  0  0
   -3.9334   -2.1918   -0.0000 C   0  0  0  0  0  0  0  0  0  0  0  0
    0.4384    5.9712   -0.0000 C   0  0  0  0  0  0  0  0  0  0  0  0
   -1.3625    5.3078   -0.0000 C   0  0  0  0  0  0  0  0  0  0  0  0
    1.4099    4.3007   -0.0000 C   0  0  0  0  0  0  0  0  0  0  0  0
   -5.2367   -1.4217   -0.0000 C   0  0  0  0  0  0  0  0  0  0  0  0
   -3.9334   -3.6728   -0.0000 C   0  0  0  0  0  0  0  0  0  0  0  0
    1.9075    6.2319   -0.0000 C   0  0  0  0  0  0  0  0  0  0  0  0
   -0.5331    7.1205   -0.0000 C   0  0  0  0  0  0  0  0  0  0  0  0
   -6.5399   -2.1563   -0.0000 C   0  0  0  0  0  0  0  0  0  0  0  0
   -5.2367   -4.4073   -0.0000 C   0  0  0  0  0  0  0  0  0  0  0  0
    2.4051    7.6536   -0.0000 C   0  0  0  0  0  0  0  0  0  0  0  0
   -0.0474    8.5303   -0.0000 C   0  0  0  0  0  0  0  0  0  0  0  0
   -6.5518   -3.6491   -0.0000 C   0  0  0  0  0  0  0  0  0  0  0  0
    1.4336    8.8028   -0.0000 C   0  0  0  0  0  0  0  0  0  0  0  0
   -7.8550   -4.3836   -0.0000 C   0  0  0  0  0  0  0  0  0  0  0  0
   -9.1583   -3.6254   -0.0000 N   0  0  0  0  0  0  0  0  0  0  0  0
   -7.8669   -5.8646   -0.0000 C   0  0  0  0  0  0  0  0  0  0  0  0
  -10.4615   -4.3599   -0.0000 C   0  0  0  0  0  0  0  0  0  0  0  0
   -9.1701   -6.5992   -0.0000 C   0  0  0  0  0  0  0  0  0  0  0  0
  -10.4734   -5.8528   -0.0000 C   0  0  0  0  0  0  0  0  0  0  0  0
  1  2  2  0
  2  3  1  0
  2  4  1  0
  3  5  1  0
  3  6  1  0
  4  7  1  0
  5  8  1  0
  6  9  1  0
  7 10  1  0
  8 11  1  0
  8 12  1  0
  8 13  1  0
 10 14  2  0
 10 15  1  0
 11 16  2  0
 11 17  1  0
 14 18  1  0
 15 19  2  0
 16 20  1  0
 17 21  2  0
 18 22  2  0
 20 23  2  0
 22 24  1  0
 24 25  2  0
 24 26  1  0
 25 27  1  0
 26 28  2  0
 27 29  2  0
  9 12  1  0
 19 22  1  0
 21 23  1  0
 28 29  1  0
M  END
>  <MolRegNo>  (1) 
618949

>  <m>  (1) 
=

>  <Value>  (1) 
10000

>  <Unit>  (1) 
nM

>  <Type>  (1) 
IC50

>  <pValue>  (1) 
5

>  <Ligand Efficiency>  (1) 
0

>  <Binding Efficiency>  (1) 
0

>  <Surface Efficiency>  (1) 
0

>  <Assay Index>  (1) 
466911

>  <Assay Category>  (1) 


>  <Assay Organism>  (1) 


>  <Target ID>  (1) 
11365

>  <Target Name>  (1) 
Cytochrome P450 2D6

>  <Target Organism>  (1) 
Homo sapiens

>  <Target Description>  (1) 
Target is a single protein chain

>  <Sequence Accession>  (1) 
P10635

>  <Reference>  (1) 
Bioorg Med Chem Lett 19 (18), 5314-5320 (2009)

>  <Pubmed ID>  (1) 
19682899

>  <DOI>  (1) 
10.1016/j.bmcl.2009.07.138

$$$$
