4wnv_ligand_42
     RDKit          2D

 17 18  0  0  0  0  0  0  0  0999 V2000
    0.0000   -0.0000   -0.0000 O   0  0  0  0  0  0  0  0  0  0  0  0
    1.2867    0.7603   -0.0000 C   0  0  0  0  0  0  0  0  0  0  0  0
   -1.3101    0.7603   -0.0000 C   0  0  0  0  0  0  0  0  0  0  0  0
    1.2750    2.2576   -0.0000 C   0  0  0  0  0  0  0  0  0  0  0  0
    2.5735    0.0117   -0.0000 C   0  0  0  0  0  0  0  0  0  0  0  0
   -2.6203    0.0234   -0.0000 C   0  0  0  0  0  0  0  0  0  0  0  0
    2.5618    3.0180   -0.0000 C   0  0  0  0  0  0  0  0  0  0  0  0
    3.8602    0.7720   -0.0000 C   0  0  0  0  0  0  0  0  0  0  0  0
   -3.9304    0.7837   -0.0000 C   0  0  0  0  0  0  0  0  0  0  0  0
    3.8602    2.2810   -0.0000 C   0  0  0  0  0  0  0  0  0  0  0  0
   -5.2522    0.0468   -0.0000 C   0  0  0  0  0  0  0  0  0  0  0  0
    5.1469    3.0531   -0.0000 N   0  0  0  0  0  0  0  0  0  0  0  0
    6.5038    2.4565   -0.0000 C   0  0  0  0  0  0  0  0  0  0  0  0
    5.2756    4.5504   -0.0000 C   0  0  0  0  0  0  0  0  0  0  0  0
    7.4981    3.5795   -0.0000 C   0  0  0  0  0  0  0  0  0  0  0  0
    6.8080    0.9943   -0.0000 C   0  0  0  0  0  0  0  0  0  0  0  0
    6.7378    4.8779   -0.0000 N   0  0  0  0  0  0  0  0  0  0  0  0
  1  2  1  0
  1  3  1  0
  2  4  2  0
  2  5  1  0
  3  6  1  0
  4  7  1  0
  5  8  2  0
  6  9  1  0
  7 10  2  0
  9 11  1  0
 10 12  1  0
 12 13  1  0
 12 14  1  0
 13 15  2  0
 13 16  1  0
 14 17  2  0
  8 10  1  0
 15 17  1  0
M  END
>  <MolRegNo>  (1) 
251508

>  <m>  (1) 
=

>  <Value>  (1) 
120

>  <Unit>  (1) 
nM

>  <Type>  (1) 
IC50

>  <pValue>  (1) 
6.92

>  <Ligand Efficiency>  (1) 
0

>  <Binding Efficiency>  (1) 
0

>  <Surface Efficiency>  (1) 
0

>  <Assay Index>  (1) 
51627

>  <Assay Category>  (1) 


>  <Assay Organism>  (1) 


>  <Target ID>  (1) 
11365

>  <Target Name>  (1) 
Cytochrome P450 2D6

>  <Target Organism>  (1) 
Homo sapiens

>  <Target Description>  (1) 
Target is a single protein chain

>  <Sequence Accession>  (1) 
P10635

>  <Reference>  (1) 
J Med Chem 46 (25), 5416-5427 (2003)

>  <Pubmed ID>  (1) 
14640550

>  <DOI>  (1) 
10.1021/jm020557k

$$$$
