4wnv_ligand_249
     RDKit          2D

 29 32  0  0  0  0  0  0  0  0999 V2000
    0.0000   -0.0000   -0.0000 O   0  0  0  0  0  0  0  0  0  0  0  0
   -0.0119   -1.4881   -0.0000 C   0  0  0  0  0  0  0  0  0  0  0  0
   -1.3333   -2.2262   -0.0000 N   0  0  0  0  0  0  0  0  0  0  0  0
    1.2738   -2.2262   -0.0000 C   0  0  0  0  0  0  0  0  0  0  0  0
   -1.3452   -3.7143   -0.0000 C   0  0  0  0  0  0  0  0  0  0  0  0
   -2.6429   -1.4643   -0.0000 C   0  0  0  0  0  0  0  0  0  0  0  0
    2.5595   -1.4524   -0.0000 C   0  0  0  0  0  0  0  0  0  0  0  0
   -2.6548   -4.4524   -0.0000 C   0  0  0  0  0  0  0  0  0  0  0  0
   -3.9643   -2.2024   -0.0000 C   0  0  0  0  0  0  0  0  0  0  0  0
    3.8572   -2.1786   -0.0000 C   0  0  0  0  0  0  0  0  0  0  0  0
   -3.9762   -3.6905   -0.0000 C   0  0  0  0  0  0  0  0  0  0  0  0
    3.8333   -3.6786   -0.0000 C   0  0  0  0  0  0  0  0  0  0  0  0
    5.1429   -1.4286   -0.0000 C   0  0  0  0  0  0  0  0  0  0  0  0
   -5.2976   -4.4286   -0.0000 C   0  0  0  0  0  0  0  0  0  0  0  0
    5.1191   -4.4286   -0.0000 C   0  0  0  0  0  0  0  0  0  0  0  0
    6.4286   -2.1667   -0.0000 C   0  0  0  0  0  0  0  0  0  0  0  0
   -6.6072   -3.6667   -0.0000 C   0  0  0  0  0  0  0  0  0  0  0  0
    6.4048   -3.6667   -0.0000 C   0  0  0  0  0  0  0  0  0  0  0  0
   -7.9881   -4.2738   -0.0000 N   0  0  0  0  0  0  0  0  0  0  0  0
   -6.7857   -2.1667   -0.0000 C   0  0  0  0  0  0  0  0  0  0  0  0
    7.6905   -4.4048   -0.0000 C   0  0  0  0  0  0  0  0  0  0  0  0
   -9.0119   -3.1429   -0.0000 C   0  0  0  0  0  0  0  0  0  0  0  0
   -8.2619   -1.8452   -0.0000 N   0  0  0  0  0  0  0  0  0  0  0  0
    7.6786   -5.8929   -0.0000 N   0  0  0  0  0  0  0  0  0  0  0  0
    6.3572   -6.6310   -0.0000 C   0  0  0  0  0  0  0  0  0  0  0  0
    8.9643   -6.6310   -0.0000 C   0  0  0  0  0  0  0  0  0  0  0  0
    6.3334   -8.1191   -0.0000 C   0  0  0  0  0  0  0  0  0  0  0  0
    8.9405   -8.1310   -0.0000 C   0  0  0  0  0  0  0  0  0  0  0  0
    7.6191   -8.8691   -0.0000 C   0  0  0  0  0  0  0  0  0  0  0  0
  1  2  2  0
  2  3  1  0
  2  4  1  0
  3  5  1  0
  3  6  1  0
  4  7  1  0
  5  8  1  0
  6  9  1  0
  7 10  1  0
  8 11  1  0
 10 12  2  0
 10 13  1  0
 11 14  1  0
 12 15  1  0
 13 16  2  0
 14 17  1  0
 15 18  2  0
 17 19  1  0
 17 20  2  0
 18 21  1  0
 19 22  2  0
 20 23  1  0
 21 24  1  0
 24 25  1  0
 24 26  1  0
 25 27  1  0
 26 28  1  0
 27 29  1  0
  9 11  1  0
 16 18  1  0
 22 23  1  0
 28 29  1  0
M  END
>  <MolRegNo>  (1) 
339445

>  <m>  (1) 
=

>  <Value>  (1) 
3000

>  <Unit>  (1) 
nM

>  <Type>  (1) 
IC50

>  <pValue>  (1) 
5.52

>  <Ligand Efficiency>  (1) 
0

>  <Binding Efficiency>  (1) 
0

>  <Surface Efficiency>  (1) 
0

>  <Assay Index>  (1) 
257619

>  <Assay Category>  (1) 


>  <Assay Organism>  (1) 
Homo sapiens

>  <Target ID>  (1) 
11365

>  <Target Name>  (1) 
Cytochrome P450 2D6

>  <Target Organism>  (1) 
Homo sapiens

>  <Target Description>  (1) 
Target is a single protein chain

>  <Sequence Accession>  (1) 
P10635

>  <Reference>  (1) 
Bioorg Med Chem Lett 16 (4), 989-994 (2006)

>  <Pubmed ID>  (1) 
16297617

>  <DOI>  (1) 
10.1016/j.bmcl.2005.10.087

$$$$
