4wnv_ligand_158
     RDKit          2D

 21 23  0  0  0  0  0  0  0  0999 V2000
    0.0000   -0.0000   -0.0000 O   0  0  0  0  0  0  0  0  0  0  0  0
   -1.3185   -0.7432   -0.0000 C   0  0  0  0  0  0  0  0  0  0  0  0
   -2.6370   -0.0120   -0.0000 N   0  0  0  0  0  0  0  0  0  0  0  0
   -1.3305   -2.2535   -0.0000 C   0  0  0  0  0  0  0  0  0  0  0  0
   -3.9436   -0.7551   -0.0000 C   0  0  0  0  0  0  0  0  0  0  0  0
   -2.6011    1.5223   -0.0000 C   0  0  0  0  0  0  0  0  0  0  0  0
   -2.6490   -2.9726   -0.0000 C   0  0  0  0  0  0  0  0  0  0  0  0
   -0.0360   -2.9726   -0.0000 C   0  0  0  0  0  0  0  0  0  0  0  0
   -5.3100   -0.0240   -0.0000 O   0  0  0  0  0  0  0  0  0  0  0  0
   -3.9555   -2.2175   -0.0000 C   0  0  0  0  0  0  0  0  0  0  0  0
   -3.9196    2.2535   -0.0000 C   0  0  0  0  0  0  0  0  0  0  0  0
   -2.6131   -4.4710   -0.0000 C   0  0  0  0  0  0  0  0  0  0  0  0
   -0.0479   -4.4710   -0.0000 C   0  0  0  0  0  0  0  0  0  0  0  0
   -5.2381   -2.9726   -0.0000 C   0  0  0  0  0  0  0  0  0  0  0  0
   -3.9316    3.7877   -0.0000 N   0  0  0  0  0  0  0  0  0  0  0  0
   -1.3665   -5.1901   -0.0000 C   0  0  0  0  0  0  0  0  0  0  0  0
   -3.9316   -5.1901   -0.0000 C   0  0  0  0  0  0  0  0  0  0  0  0
    1.2945   -5.1901   -0.0000 N   0  0  0  0  0  0  0  0  0  0  0  0
   -5.2501   -4.4350   -0.0000 C   0  0  0  0  0  0  0  0  0  0  0  0
   -2.6370    4.5069   -0.0000 C   0  0  0  0  0  0  0  0  0  0  0  0
   -5.2141    4.5069   -0.0000 C   0  0  0  0  0  0  0  0  0  0  0  0
  1  2  2  0
  2  3  1  0
  2  4  1  0
  3  5  1  0
  3  6  1  0
  4  7  2  0
  4  8  1  0
  5  9  2  0
  5 10  1  0
  6 11  1  0
  7 12  1  0
  8 13  2  0
 10 14  2  0
 11 15  1  0
 12 16  2  0
 12 17  1  0
 13 18  1  0
 14 19  1  0
 15 20  1  0
 15 21  1  0
  7 10  1  0
 13 16  1  0
 17 19  2  0
M  END
>  <MolRegNo>  (1) 
23998

>  <m>  (1) 
=

>  <Value>  (1) 
39600

>  <Unit>  (1) 
nM

>  <Type>  (1) 
IC50

>  <pValue>  (1) 
4.4

>  <Ligand Efficiency>  (1) 
0

>  <Binding Efficiency>  (1) 
0

>  <Surface Efficiency>  (1) 
0

>  <Assay Index>  (1) 
237541

>  <Assay Category>  (1) 


>  <Assay Organism>  (1) 


>  <Target ID>  (1) 
11365

>  <Target Name>  (1) 
Cytochrome P450 2D6

>  <Target Organism>  (1) 
Homo sapiens

>  <Target Description>  (1) 
Target is a single protein chain

>  <Sequence Accession>  (1) 
P10635

>  <Reference>  (1) 
J Med Chem 47 (22), 5340-5346 (2004)

>  <Pubmed ID>  (1) 
15481972

>  <DOI>  (1) 
10.1021/jm049934e

$$$$
