4wnv_ligand_217
     RDKit          2D

 32 35  0  0  1  0  0  0  0  0999 V2000
    0.0000   -0.0000   -0.0000 O   0  0  0  0  0  0  0  0  0  0  0  0
    0.7382    1.3097   -0.0000 C   0  0  0  0  0  0  0  0  0  0  0  0
   -0.0238    2.6194   -0.0000 O   0  0  0  0  0  0  0  0  0  0  0  0
    2.2265    1.3216   -0.0000 N   0  0  0  0  0  0  0  0  0  0  0  0
    0.7144    3.9292   -0.0000 C   0  0  0  0  0  0  0  0  0  0  0  0
    2.9647    2.6314   -0.0000 C   0  0  0  0  0  0  0  0  0  0  0  0
    4.4412    2.6433   -0.0000 C   0  0  0  0  0  0  0  0  0  0  0  0
    2.2027    3.9411   -0.0000 C   0  0  0  0  0  0  0  0  0  0  0  0
    5.1675    3.9411   -0.0000 C   0  0  0  0  0  0  0  0  0  0  0  0
    2.9409    5.2508   -0.0000 C   0  0  0  0  0  0  0  0  0  0  0  0
    4.4054    5.2508   -0.0000 C   0  0  0  0  0  0  0  0  0  0  0  0
    6.6201    4.2626   -0.0000 C   0  0  0  0  0  0  0  0  0  0  0  0
    5.3937    6.3819   -0.0000 O   0  0  0  0  0  0  0  0  0  0  0  0
    6.7629    5.7628   -0.0000 C   0  0  0  0  0  0  0  0  0  0  0  0
    8.0489    6.5248   -0.0000 C   0  0  0  0  0  0  0  0  0  0  0  0
    8.0369    8.0369   -0.0000 O   0  0  0  0  0  0  0  0  0  0  0  0
    9.3348    5.7866   -0.0000 N   0  0  0  0  0  0  0  0  0  0  0  0
   10.6207    6.5486   -0.0000 C   0  0  0  0  0  0  0  0  0  0  0  0
    9.3229    4.2983   -0.0000 C   0  0  0  0  0  0  0  0  0  0  0  0
   10.6088    8.0608   -0.0000 C   0  0  0  0  0  0  0  0  0  0  0  0
   11.9066    5.8104   -0.0000 C   0  0  0  0  0  0  0  0  0  0  0  0
    9.2990    8.8228   -0.0000 C   0  0  0  0  0  0  0  0  0  0  0  0
   11.9066    8.8228   -0.0000 C   0  0  0  0  0  0  0  0  0  0  0  0
   13.1925    6.5724   -0.0000 N   0  0  0  0  0  0  0  0  0  0  0  0
    9.2871   10.3468   -0.0000 C   0  0  0  0  0  0  0  0  0  0  0  0
   11.8947   10.3468   -0.0000 C   0  0  0  0  0  0  0  0  0  0  0  0
   14.5498    5.9771   -0.0000 C   0  0  0  0  0  0  0  0  0  0  0  0
   13.3354    8.0846   -0.0000 C   0  0  0  0  0  0  0  0  0  0  0  0
   10.5730   11.1088   -0.0000 C   0  0  0  0  0  0  0  0  0  0  0  0
   15.5381    7.1082   -0.0000 C   0  0  0  0  0  0  0  0  0  0  0  0
   14.7880    8.4060   -0.0000 C   0  0  0  0  0  0  0  0  0  0  0  0
   17.0145    6.9654   -0.0000 O   0  0  0  0  0  0  0  0  0  0  0  0
  1  2  2  0
  2  3  1  0
  2  4  1  0
  3  5  1  0
  4  6  1  0
  6  7  2  0
  6  8  1  0
  7  9  1  0
  8 10  2  0
  9 11  2  0
  9 12  1  0
 11 13  1  0
 12 14  1  0
 14 15  1  1
 15 16  2  0
 15 17  1  0
 18 17  1  0
 17 19  1  0
 18 20  1  0
 18 21  1  1
 20 22  2  0
 20 23  1  0
 21 24  1  0
 22 25  1  0
 23 26  2  0
 24 27  1  0
 24 28  1  0
 25 29  2  0
 27 30  1  0
 28 31  1  0
 30 32  1  6
 10 11  1  0
 13 14  1  0
 26 29  1  0
 30 31  1  0
M  END
>  <MolRegNo>  (1) 
331949

>  <m>  (1) 
=

>  <Value>  (1) 
4200

>  <Unit>  (1) 
nM

>  <Type>  (1) 
IC50

>  <pValue>  (1) 
5.38

>  <Ligand Efficiency>  (1) 
0

>  <Binding Efficiency>  (1) 
0

>  <Surface Efficiency>  (1) 
0

>  <Assay Index>  (1) 
253815

>  <Assay Category>  (1) 


>  <Assay Organism>  (1) 
Homo sapiens

>  <Target ID>  (1) 
11365

>  <Target Name>  (1) 
Cytochrome P450 2D6

>  <Target Organism>  (1) 
Homo sapiens

>  <Target Description>  (1) 
Target is a single protein chain

>  <Sequence Accession>  (1) 
P10635

>  <Reference>  (1) 
Bioorg Med Chem Lett 15 (23), 5114-5119 (2005)

>  <Pubmed ID>  (1) 
16203140

>  <DOI>  (1) 
10.1016/j.bmcl.2005.08.094

$$$$
