4wnv_ligand_869
     RDKit          2D

 30 34  0  0  0  0  0  0  0  0999 V2000
    0.0000   -0.0000   -0.0000 F   0  0  0  0  0  0  0  0  0  0  0  0
   -1.0111    1.1170   -0.0000 C   0  0  0  0  0  0  0  0  0  0  0  0
   -2.4808    0.8230   -0.0000 C   0  0  0  0  0  0  0  0  0  0  0  0
   -0.5644    2.5514   -0.0000 C   0  0  0  0  0  0  0  0  0  0  0  0
   -3.4920    1.9400   -0.0000 C   0  0  0  0  0  0  0  0  0  0  0  0
   -1.5755    3.6683   -0.0000 C   0  0  0  0  0  0  0  0  0  0  0  0
   -3.0452    3.3744   -0.0000 C   0  0  0  0  0  0  0  0  0  0  0  0
   -4.0563    4.4914   -0.0000 C   0  0  0  0  0  0  0  0  0  0  0  0
   -3.6096    5.9258   -0.0000 N   0  0  0  0  0  0  0  0  0  0  0  0
   -4.5031    7.1486   -0.0000 C   0  0  0  0  0  0  0  0  0  0  0  0
   -2.1987    6.3961   -0.0000 C   0  0  0  0  0  0  0  0  0  0  0  0
   -3.6331    8.3713   -0.0000 N   0  0  0  0  0  0  0  0  0  0  0  0
   -6.0081    7.1603   -0.0000 N   0  0  0  0  0  0  0  0  0  0  0  0
   -2.2104    7.9010   -0.0000 C   0  0  0  0  0  0  0  0  0  0  0  0
   -0.9171    5.6554   -0.0000 C   0  0  0  0  0  0  0  0  0  0  0  0
   -6.7606    5.8787   -0.0000 C   0  0  0  0  0  0  0  0  0  0  0  0
   -6.7606    8.4654   -0.0000 C   0  0  0  0  0  0  0  0  0  0  0  0
   -0.9288    8.6653   -0.0000 C   0  0  0  0  0  0  0  0  0  0  0  0
    0.3645    6.4196   -0.0000 C   0  0  0  0  0  0  0  0  0  0  0  0
   -8.2655    5.8905   -0.0000 C   0  0  0  0  0  0  0  0  0  0  0  0
   -8.2655    8.4772   -0.0000 C   0  0  0  0  0  0  0  0  0  0  0  0
    0.3527    7.9246   -0.0000 C   0  0  0  0  0  0  0  0  0  0  0  0
   -9.0180    7.1956   -0.0000 C   0  0  0  0  0  0  0  0  0  0  0  0
  -10.5230    7.2073   -0.0000 N   0  0  0  0  0  0  0  0  0  0  0  0
  -11.2872    8.5124   -0.0000 C   0  0  0  0  0  0  0  0  0  0  0  0
  -11.2872    5.9258   -0.0000 C   0  0  0  0  0  0  0  0  0  0  0  0
  -10.5465    9.8175   -0.0000 O   0  0  0  0  0  0  0  0  0  0  0  0
  -12.7922    8.5242   -0.0000 C   0  0  0  0  0  0  0  0  0  0  0  0
  -12.7922    5.9375   -0.0000 C   0  0  0  0  0  0  0  0  0  0  0  0
  -13.5446    7.2426   -0.0000 C   0  0  0  0  0  0  0  0  0  0  0  0
  1  2  1  0
  2  3  2  0
  2  4  1  0
  3  5  1  0
  4  6  2  0
  5  7  2  0
  7  8  1  0
  8  9  1  0
  9 10  1  0
  9 11  1  0
 10 12  2  0
 10 13  1  0
 11 14  2  0
 11 15  1  0
 13 16  1  0
 13 17  1  0
 14 18  1  0
 15 19  2  0
 16 20  1  0
 17 21  1  0
 18 22  2  0
 20 23  1  0
 23 24  1  0
 24 25  1  0
 24 26  1  0
 25 27  2  0
 25 28  1  0
 26 29  1  0
 28 30  1  0
  6  7  1  0
 12 14  1  0
 19 22  1  0
 21 23  1  0
 29 30  1  0
M  END
>  <MolRegNo>  (1) 
561176

>  <m>  (1) 
=

>  <Value>  (1) 
4353

>  <Unit>  (1) 
nM

>  <Type>  (1) 
IC50

>  <pValue>  (1) 
5.36

>  <Ligand Efficiency>  (1) 
0

>  <Binding Efficiency>  (1) 
0

>  <Surface Efficiency>  (1) 
0

>  <Assay Index>  (1) 
429822

>  <Assay Category>  (1) 


>  <Assay Organism>  (1) 


>  <Target ID>  (1) 
11365

>  <Target Name>  (1) 
Cytochrome P450 2D6

>  <Target Organism>  (1) 
Homo sapiens

>  <Target Description>  (1) 
Target is a single protein chain

>  <Sequence Accession>  (1) 
P10635

>  <Reference>  (1) 
Bioorg Med Chem Lett 19 (15), 4380-4384 (2009)

>  <Pubmed ID>  (1) 
19553115

>  <DOI>  (1) 
10.1016/j.bmcl.2009.05.086

$$$$
