4wnv_ligand_320
     RDKit          2D

 24 26  0  0  0  0  0  0  0  0999 V2000
    0.0000   -0.0000   -0.0000 O   0  0  0  0  0  0  0  0  0  0  0  0
   -0.0119    1.5083   -0.0000 C   0  0  0  0  0  0  0  0  0  0  0  0
   -1.3182    2.2683   -0.0000 O   0  0  0  0  0  0  0  0  0  0  0  0
    1.2707    2.2683   -0.0000 N   0  0  0  0  0  0  0  0  0  0  0  0
   -2.6246    1.5320   -0.0000 C   0  0  0  0  0  0  0  0  0  0  0  0
    2.5533    1.5201   -0.0000 C   0  0  0  0  0  0  0  0  0  0  0  0
    1.2470    3.7766   -0.0000 C   0  0  0  0  0  0  0  0  0  0  0  0
   -3.9310    2.2921   -0.0000 C   0  0  0  0  0  0  0  0  0  0  0  0
    3.8359    2.2802   -0.0000 C   0  0  0  0  0  0  0  0  0  0  0  0
    2.5415    4.5366   -0.0000 C   0  0  0  0  0  0  0  0  0  0  0  0
   -5.2492    1.5558   -0.0000 C   0  0  0  0  0  0  0  0  0  0  0  0
   -3.9428    3.8122   -0.0000 C   0  0  0  0  0  0  0  0  0  0  0  0
    3.8241    3.7884   -0.0000 C   0  0  0  0  0  0  0  0  0  0  0  0
   -6.5555    2.3158   -0.0000 C   0  0  0  0  0  0  0  0  0  0  0  0
   -5.2492    4.5723   -0.0000 C   0  0  0  0  0  0  0  0  0  0  0  0
    5.1067    4.5485   -0.0000 C   0  0  0  0  0  0  0  0  0  0  0  0
   -6.5674    3.8359   -0.0000 C   0  0  0  0  0  0  0  0  0  0  0  0
    6.3893    3.8122   -0.0000 N   0  0  0  0  0  0  0  0  0  0  0  0
    7.6719    4.5723   -0.0000 C   0  0  0  0  0  0  0  0  0  0  0  0
    8.9545    3.8359   -0.0000 C   0  0  0  0  0  0  0  0  0  0  0  0
    7.6600    6.0805   -0.0000 C   0  0  0  0  0  0  0  0  0  0  0  0
   10.2371    4.5960   -0.0000 N   0  0  0  0  0  0  0  0  0  0  0  0
    8.9426    6.8406   -0.0000 C   0  0  0  0  0  0  0  0  0  0  0  0
   10.2252    6.1043   -0.0000 C   0  0  0  0  0  0  0  0  0  0  0  0
  1  2  2  0
  2  3  1  0
  2  4  1  0
  3  5  1  0
  4  6  1  0
  4  7  1  0
  5  8  1  0
  6  9  1  0
  7 10  1  0
  8 11  2  0
  8 12  1  0
  9 13  1  0
 11 14  1  0
 12 15  2  0
 13 16  1  0
 14 17  2  0
 16 18  1  0
 18 19  1  0
 19 20  2  0
 19 21  1  0
 20 22  1  0
 21 23  2  0
 22 24  2  0
 10 13  1  0
 15 17  1  0
 23 24  1  0
M  END
>  <MolRegNo>  (1) 
367434

>  <m>  (1) 
=

>  <Value>  (1) 
1700

>  <Unit>  (1) 
nM

>  <Type>  (1) 
IC50

>  <pValue>  (1) 
5.77

>  <Ligand Efficiency>  (1) 
0

>  <Binding Efficiency>  (1) 
0

>  <Surface Efficiency>  (1) 
0

>  <Assay Index>  (1) 
274142

>  <Assay Category>  (1) 


>  <Assay Organism>  (1) 
Homo sapiens

>  <Target ID>  (1) 
11365

>  <Target Name>  (1) 
Cytochrome P450 2D6

>  <Target Organism>  (1) 
Homo sapiens

>  <Target Description>  (1) 
Target is a single protein chain

>  <Sequence Accession>  (1) 
P10635

>  <Reference>  (1) 
J Med Chem 50 (4), 807-819 (2007)

>  <Pubmed ID>  (1) 
17249648

>  <DOI>  (1) 
10.1021/jm060983w

$$$$
