4wnv_ligand_32
     RDKit          2D

 17 18  0  0  0  0  0  0  0  0999 V2000
    0.0000   -0.0000   -0.0000 O   0  0  0  0  0  0  0  0  0  0  0  0
    1.2952    0.7654   -0.0000 C   0  0  0  0  0  0  0  0  0  0  0  0
   -1.3070    0.7654   -0.0000 C   0  0  0  0  0  0  0  0  0  0  0  0
    2.5786    0.0235   -0.0000 C   0  0  0  0  0  0  0  0  0  0  0  0
    1.2717    2.2725   -0.0000 C   0  0  0  0  0  0  0  0  0  0  0  0
   -2.6140    0.0235   -0.0000 C   0  0  0  0  0  0  0  0  0  0  0  0
    3.8621    0.7889   -0.0000 C   0  0  0  0  0  0  0  0  0  0  0  0
    2.5551    3.0379   -0.0000 C   0  0  0  0  0  0  0  0  0  0  0  0
   -3.9210    0.7889   -0.0000 C   0  0  0  0  0  0  0  0  0  0  0  0
    3.8621    2.2961   -0.0000 C   0  0  0  0  0  0  0  0  0  0  0  0
   -5.2279    0.0471   -0.0000 C   0  0  0  0  0  0  0  0  0  0  0  0
    5.1455    3.0614   -0.0000 C   0  0  0  0  0  0  0  0  0  0  0  0
    6.4290    2.3196   -0.0000 C   0  0  0  0  0  0  0  0  0  0  0  0
    5.1220    4.5686   -0.0000 C   0  0  0  0  0  0  0  0  0  0  0  0
    7.7124    3.0614   -0.0000 C   0  0  0  0  0  0  0  0  0  0  0  0
    6.4054    5.3339   -0.0000 C   0  0  0  0  0  0  0  0  0  0  0  0
    7.7006    4.5686   -0.0000 N   0  0  0  0  0  0  0  0  0  0  0  0
  1  2  1  0
  1  3  1  0
  2  4  2  0
  2  5  1  0
  3  6  1  0
  4  7  1  0
  5  8  2  0
  6  9  1  0
  7 10  2  0
  9 11  1  0
 10 12  1  0
 12 13  2  0
 12 14  1  0
 13 15  1  0
 14 16  2  0
 15 17  2  0
  8 10  1  0
 16 17  1  0
M  END
>  <MolRegNo>  (1) 
251252

>  <m>  (1) 
=

>  <Value>  (1) 
398

>  <Unit>  (1) 
nM

>  <Type>  (1) 
IC50

>  <pValue>  (1) 
6.4

>  <Ligand Efficiency>  (1) 
0

>  <Binding Efficiency>  (1) 
0

>  <Surface Efficiency>  (1) 
0

>  <Assay Index>  (1) 
51627

>  <Assay Category>  (1) 


>  <Assay Organism>  (1) 


>  <Target ID>  (1) 
11365

>  <Target Name>  (1) 
Cytochrome P450 2D6

>  <Target Organism>  (1) 
Homo sapiens

>  <Target Description>  (1) 
Target is a single protein chain

>  <Sequence Accession>  (1) 
P10635

>  <Reference>  (1) 
J Med Chem 46 (25), 5416-5427 (2003)

>  <Pubmed ID>  (1) 
14640550

>  <DOI>  (1) 
10.1021/jm020557k

$$$$
