4wnv_ligand_657
     RDKit          2D

 35 39  0  0  0  0  0  0  0  0999 V2000
    0.0000   -0.0000   -0.0000 Cl  0  0  0  0  0  0  0  0  0  0  0  0
    1.2915   -0.7465   -0.0000 C   0  0  0  0  0  0  0  0  0  0  0  0
    2.5830    0.0118   -0.0000 C   0  0  0  0  0  0  0  0  0  0  0  0
    1.2797   -2.2394   -0.0000 C   0  0  0  0  0  0  0  0  0  0  0  0
    3.8745   -0.7346   -0.0000 C   0  0  0  0  0  0  0  0  0  0  0  0
    2.5712   -2.9859   -0.0000 C   0  0  0  0  0  0  0  0  0  0  0  0
    5.1660    0.0237   -0.0000 F   0  0  0  0  0  0  0  0  0  0  0  0
    3.8627   -2.2276   -0.0000 C   0  0  0  0  0  0  0  0  0  0  0  0
    5.1542   -2.9740   -0.0000 C   0  0  0  0  0  0  0  0  0  0  0  0
    6.4457   -2.2157   -0.0000 N   0  0  0  0  0  0  0  0  0  0  0  0
    5.1423   -4.4670   -0.0000 C   0  0  0  0  0  0  0  0  0  0  0  0
    7.7372   -2.9622   -0.0000 C   0  0  0  0  0  0  0  0  0  0  0  0
    6.4339   -5.2016   -0.0000 C   0  0  0  0  0  0  0  0  0  0  0  0
    3.8271   -5.2016   -0.0000 C   0  0  0  0  0  0  0  0  0  0  0  0
    7.7254   -4.4551   -0.0000 N   0  0  0  0  0  0  0  0  0  0  0  0
    9.0287   -2.2039   -0.0000 C   0  0  0  0  0  0  0  0  0  0  0  0
    6.4220   -6.6945   -0.0000 C   0  0  0  0  0  0  0  0  0  0  0  0
    2.5119   -4.4433   -0.0000 O   0  0  0  0  0  0  0  0  0  0  0  0
    3.8153   -6.6945   -0.0000 N   0  0  0  0  0  0  0  0  0  0  0  0
   10.3202   -2.9503   -0.0000 C   0  0  0  0  0  0  0  0  0  0  0  0
    9.0169   -0.6872   -0.0000 C   0  0  0  0  0  0  0  0  0  0  0  0
    2.5001   -7.4292   -0.0000 C   0  0  0  0  0  0  0  0  0  0  0  0
   11.6118   -2.1920   -0.0000 C   0  0  0  0  0  0  0  0  0  0  0  0
   10.3084    0.0711   -0.0000 C   0  0  0  0  0  0  0  0  0  0  0  0
    1.1849   -6.6708   -0.0000 C   0  0  0  0  0  0  0  0  0  0  0  0
    2.4882   -8.9221   -0.0000 C   0  0  0  0  0  0  0  0  0  0  0  0
   12.9033   -2.9385   -0.0000 O   0  0  0  0  0  0  0  0  0  0  0  0
   11.5999   -0.6754   -0.0000 N   0  0  0  0  0  0  0  0  0  0  0  0
   -0.1303   -7.4055   -0.0000 C   0  0  0  0  0  0  0  0  0  0  0  0
    1.1730   -9.6686   -0.0000 C   0  0  0  0  0  0  0  0  0  0  0  0
   12.8914   -4.4314   -0.0000 C   0  0  0  0  0  0  0  0  0  0  0  0
   -0.1422   -8.8984   -0.0000 C   0  0  0  0  0  0  0  0  0  0  0  0
   -1.5759   -6.9315   -0.0000 C   0  0  0  0  0  0  0  0  0  0  0  0
   -1.5877   -9.3486   -0.0000 N   0  0  0  0  0  0  0  0  0  0  0  0
   -2.4764   -8.1401   -0.0000 N   0  0  0  0  0  0  0  0  0  0  0  0
  1  2  1  0
  2  3  2  0
  2  4  1  0
  3  5  1  0
  4  6  2  0
  5  7  1  0
  5  8  2  0
  8  9  1  0
  9 10  1  0
  9 11  1  0
 10 12  2  0
 11 13  2  0
 11 14  1  0
 12 15  1  0
 12 16  1  0
 13 17  1  0
 14 18  2  0
 14 19  1  0
 16 20  2  0
 16 21  1  0
 19 22  1  0
 20 23  1  0
 21 24  2  0
 22 25  2  0
 22 26  1  0
 23 27  1  0
 23 28  2  0
 25 29  1  0
 26 30  2  0
 27 31  1  0
 29 32  2  0
 29 33  1  0
 32 34  1  0
 33 35  2  0
  6  8  1  0
 13 15  1  0
 24 28  1  0
 30 32  1  0
 34 35  1  0
M  END
>  <MolRegNo>  (1) 
513804

>  <m>  (1) 
=

>  <Value>  (1) 
3700

>  <Unit>  (1) 
nM

>  <Type>  (1) 
IC50

>  <pValue>  (1) 
5.43

>  <Ligand Efficiency>  (1) 
0

>  <Binding Efficiency>  (1) 
0

>  <Surface Efficiency>  (1) 
0

>  <Assay Index>  (1) 
386364

>  <Assay Category>  (1) 


>  <Assay Organism>  (1) 


>  <Target ID>  (1) 
11365

>  <Target Name>  (1) 
Cytochrome P450 2D6

>  <Target Organism>  (1) 
Homo sapiens

>  <Target Description>  (1) 
Target is a single protein chain

>  <Sequence Accession>  (1) 
P10635

>  <Reference>  (1) 
J Med Chem 51 (21), 6631-6634 (2008)

>  <Pubmed ID>  (1) 
18842034

>  <DOI>  (1) 
10.1021/jm8005096

$$$$
