4wnv_ligand_285
     RDKit          2D

 24 28  0  0  1  0  0  0  0  0999 V2000
    0.0000   -0.0000   -0.0000 O   0  0  0  0  0  0  0  0  0  0  0  0
   -1.4705    0.4077   -0.0000 C   0  0  0  0  0  0  0  0  0  0  0  0
   -2.0237    1.8199   -0.0000 O   0  0  0  0  0  0  0  0  0  0  0  0
   -2.6498   -0.5241   -0.0000 N   0  0  0  0  0  0  0  0  0  0  0  0
   -3.5379    1.7617   -0.0000 C   0  0  0  0  0  0  0  0  0  0  0  0
   -2.5915   -2.0092   -0.0000 C   0  0  0  0  0  0  0  0  0  0  0  0
   -3.9164    0.3057   -0.0000 C   0  0  0  0  0  0  0  0  0  0  0  0
   -4.8773    2.4023   -0.0000 C   0  0  0  0  0  0  0  0  0  0  0  0
   -3.8290    3.1448   -0.0000 C   0  0  0  0  0  0  0  0  0  0  0  0
   -1.2084   -2.5187   -0.0000 C   0  0  0  0  0  0  0  0  0  0  0  0
   -3.7562   -2.9701   -0.0000 C   0  0  0  0  0  0  0  0  0  0  0  0
   -6.3914    1.7762   -0.0000 C   0  0  0  0  0  0  0  0  0  0  0  0
   -4.6444    4.2658   -0.0000 C   0  0  0  0  0  0  0  0  0  0  0  0
   -5.1685    3.7562   -0.0000 N   0  0  0  0  0  0  0  0  0  0  0  0
   -0.9609   -3.9892   -0.0000 C   0  0  0  0  0  0  0  0  0  0  0  0
   -3.5087   -4.4405   -0.0000 C   0  0  0  0  0  0  0  0  0  0  0  0
   -6.5953    3.1302   -0.0000 C   0  0  0  0  0  0  0  0  0  0  0  0
   -5.0957    5.3577   -0.0000 C   0  0  0  0  0  0  0  0  0  0  0  0
   -2.1111   -4.9355   -0.0000 C   0  0  0  0  0  0  0  0  0  0  0  0
    0.2912   -4.7754   -0.0000 C   0  0  0  0  0  0  0  0  0  0  0  0
   -1.5724   -6.3186   -0.0000 O   0  0  0  0  0  0  0  0  0  0  0  0
   -0.0874   -6.2167   -0.0000 C   0  0  0  0  0  0  0  0  0  0  0  0
    1.6597   -4.2076   -0.0000 C   0  0  0  0  0  0  0  0  0  0  0  0
    2.8245   -5.1102   -0.0000 C   0  0  0  0  0  0  0  0  0  0  0  0
  1  2  2  0
  2  3  1  0
  2  4  1  0
  5  3  1  0
  4  6  1  0
  4  7  1  0
  5  8  1  0
  5  9  1  0
  6 10  1  0
  6 11  2  0
  8 12  1  0
  8 13  1  0
  9 14  1  0
 10 15  2  0
 11 16  1  0
 12 17  1  0
 13 18  1  0
 15 19  1  0
 15 20  1  0
 19 21  1  0
 20 22  2  0
 20 23  1  0
 23 24  1  0
  5  7  1  1
 14 17  1  0
 14 18  1  0
 16 19  2  0
 21 22  1  0
M  END
>  <MolRegNo>  (1) 
1385493

>  <m>  (1) 
=

>  <Value>  (1) 
21000

>  <Unit>  (1) 
nM

>  <Type>  (1) 
IC50

>  <pValue>  (1) 
4.68

>  <Ligand Efficiency>  (1) 
0

>  <Binding Efficiency>  (1) 
0

>  <Surface Efficiency>  (1) 
0

>  <Assay Index>  (1) 
264394

>  <Assay Category>  (1) 


>  <Assay Organism>  (1) 
Homo sapiens

>  <Target ID>  (1) 
11365

>  <Target Name>  (1) 
Cytochrome P450 2D6

>  <Target Organism>  (1) 
Homo sapiens

>  <Target Description>  (1) 
Target is a single protein chain

>  <Sequence Accession>  (1) 
P10635

>  <Reference>  (1) 
J Med Chem 49 (14), 4374-4383 (2006)

>  <Pubmed ID>  (1) 
16821797

>  <DOI>  (1) 
10.1021/jm060249c

$$$$
