4wnv_ligand_634
     RDKit          2D

 21 24  0  0  0  0  0  0  0  0999 V2000
    0.0000   -0.0000   -0.0000 N   0  0  0  0  0  0  0  0  0  0  0  0
    1.2784    0.7576   -0.0000 C   0  0  0  0  0  0  0  0  0  0  0  0
   -1.3021    0.7576   -0.0000 C   0  0  0  0  0  0  0  0  0  0  0  0
    2.6989    0.3078   -0.0000 N   0  0  0  0  0  0  0  0  0  0  0  0
    1.2666    2.2727   -0.0000 C   0  0  0  0  0  0  0  0  0  0  0  0
   -1.3139    2.2609   -0.0000 C   0  0  0  0  0  0  0  0  0  0  0  0
    3.5748    1.5388   -0.0000 C   0  0  0  0  0  0  0  0  0  0  0  0
   -0.0355    3.0421   -0.0000 C   0  0  0  0  0  0  0  0  0  0  0  0
    2.6870    2.7462   -0.0000 C   0  0  0  0  0  0  0  0  0  0  0  0
   -2.6160    3.0185   -0.0000 C   0  0  0  0  0  0  0  0  0  0  0  0
   -3.9891    2.4266   -0.0000 C   0  0  0  0  0  0  0  0  0  0  0  0
   -2.7817    4.5100   -0.0000 C   0  0  0  0  0  0  0  0  0  0  0  0
   -1.3376    3.7879   -0.0000 C   0  0  0  0  0  0  0  0  0  0  0  0
   -4.9953    3.5511   -0.0000 N   0  0  0  0  0  0  0  0  0  0  0  0
   -4.2495    4.8296   -0.0000 C   0  0  0  0  0  0  0  0  0  0  0  0
   -1.3613    5.2912   -0.0000 C   0  0  0  0  0  0  0  0  0  0  0  0
   -0.0829    6.0606   -0.0000 C   0  0  0  0  0  0  0  0  0  0  0  0
   -2.6634    6.0370   -0.0000 C   0  0  0  0  0  0  0  0  0  0  0  0
   -0.1065    7.5639   -0.0000 C   0  0  0  0  0  0  0  0  0  0  0  0
   -2.6870    7.5403   -0.0000 C   0  0  0  0  0  0  0  0  0  0  0  0
   -1.4205    8.3097   -0.0000 C   0  0  0  0  0  0  0  0  0  0  0  0
  1  2  2  0
  1  3  1  0
  2  4  1  0
  2  5  1  0
  3  6  2  0
  4  7  1  0
  5  8  2  0
  5  9  1  0
  6 10  1  0
 10 11  1  0
 10 12  1  0
 10 13  1  0
 11 14  1  0
 12 15  1  0
 13 16  1  0
 16 17  2  0
 16 18  1  0
 17 19  1  0
 18 20  2  0
 19 21  2  0
  6  8  1  0
  7  9  2  0
 14 15  1  0
 20 21  1  0
M  END
>  <MolRegNo>  (1) 
516309

>  <m>  (1) 
=

>  <Value>  (1) 
11500

>  <Unit>  (1) 
nM

>  <Type>  (1) 
IC50

>  <pValue>  (1) 
4.94

>  <Ligand Efficiency>  (1) 
0

>  <Binding Efficiency>  (1) 
0

>  <Surface Efficiency>  (1) 
0

>  <Assay Index>  (1) 
342264

>  <Assay Category>  (1) 


>  <Assay Organism>  (1) 


>  <Target ID>  (1) 
11365

>  <Target Name>  (1) 
Cytochrome P450 2D6

>  <Target Organism>  (1) 
Homo sapiens

>  <Target Description>  (1) 
Target is a single protein chain

>  <Sequence Accession>  (1) 
P10635

>  <Reference>  (1) 
Bioorg Med Chem Lett 18 (23), 6062-6066 (2008)

>  <Pubmed ID>  (1) 
18954985

>  <DOI>  (1) 
10.1016/j.bmcl.2008.10.025

$$$$
