4wnv_ligand_914
     RDKit          2D

 27 29  0  0  0  0  0  0  0  0999 V2000
    0.0000   -0.0000   -0.0000 Cl  0  0  0  0  0  0  0  0  0  0  0  0
   -0.0119    1.5122   -0.0000 C   0  0  0  0  0  0  0  0  0  0  0  0
   -1.3217    2.2742   -0.0000 C   0  0  0  0  0  0  0  0  0  0  0  0
    1.2859    2.2742   -0.0000 C   0  0  0  0  0  0  0  0  0  0  0  0
   -2.6314    1.5360   -0.0000 C   0  0  0  0  0  0  0  0  0  0  0  0
   -1.3336    3.7864   -0.0000 C   0  0  0  0  0  0  0  0  0  0  0  0
    1.2740    3.7983   -0.0000 C   0  0  0  0  0  0  0  0  0  0  0  0
   -3.9412    0.7978   -0.0000 N   0  0  0  0  0  0  0  0  0  0  0  0
   -0.0476    4.5484   -0.0000 C   0  0  0  0  0  0  0  0  0  0  0  0
    2.5600    4.5603   -0.0000 N   0  0  0  0  0  0  0  0  0  0  0  0
    3.8459    3.8221   -0.0000 C   0  0  0  0  0  0  0  0  0  0  0  0
    2.5481    6.0725   -0.0000 C   0  0  0  0  0  0  0  0  0  0  0  0
    4.0007    2.3338   -0.0000 C   0  0  0  0  0  0  0  0  0  0  0  0
    5.2152    4.4413   -0.0000 C   0  0  0  0  0  0  0  0  0  0  0  0
    3.8340    6.8346   -0.0000 C   0  0  0  0  0  0  0  0  0  0  0  0
    5.4534    2.0361   -0.0000 N   0  0  0  0  0  0  0  0  0  0  0  0
    6.2154    3.3458   -0.0000 C   0  0  0  0  0  0  0  0  0  0  0  0
    3.8102    8.3348   -0.0000 C   0  0  0  0  0  0  0  0  0  0  0  0
    5.1200    6.0963   -0.0000 C   0  0  0  0  0  0  0  0  0  0  0  0
    6.0487    0.6787   -0.0000 C   0  0  0  0  0  0  0  0  0  0  0  0
    2.4885    9.0850   -0.0000 F   0  0  0  0  0  0  0  0  0  0  0  0
    5.0842    9.1088   -0.0000 C   0  0  0  0  0  0  0  0  0  0  0  0
    6.4059    6.8584   -0.0000 C   0  0  0  0  0  0  0  0  0  0  0  0
    5.1557   -0.5239   -0.0000 O   0  0  0  0  0  0  0  0  0  0  0  0
    7.5252    0.5358   -0.0000 O   0  0  0  0  0  0  0  0  0  0  0  0
    6.3821    8.3706   -0.0000 C   0  0  0  0  0  0  0  0  0  0  0  0
    8.1324   -0.8216   -0.0000 C   0  0  0  0  0  0  0  0  0  0  0  0
  1  2  1  0
  2  3  2  0
  2  4  1  0
  3  5  1  0
  3  6  1  0
  4  7  2  0
  5  8  3  0
  6  9  2  0
  7 10  1  0
 11 10  1  1
 10 12  1  0
 11 13  1  0
 11 14  1  0
 12 15  1  0
 13 16  1  0
 14 17  1  0
 15 18  2  0
 15 19  1  0
 16 20  1  0
 18 21  1  0
 18 22  1  0
 19 23  2  0
 20 24  2  0
 20 25  1  0
 22 26  2  0
 25 27  1  0
  7  9  1  0
 16 17  1  0
 23 26  1  0
M  END
>  <MolRegNo>  (1) 
590187

>  <m>  (1) 
=

>  <Value>  (1) 
7300

>  <Unit>  (1) 
nM

>  <Type>  (1) 
IC50

>  <pValue>  (1) 
5.14

>  <Ligand Efficiency>  (1) 
0

>  <Binding Efficiency>  (1) 
0

>  <Surface Efficiency>  (1) 
0

>  <Assay Index>  (1) 
452357

>  <Assay Category>  (1) 


>  <Assay Organism>  (1) 


>  <Target ID>  (1) 
11365

>  <Target Name>  (1) 
Cytochrome P450 2D6

>  <Target Organism>  (1) 
Homo sapiens

>  <Target Description>  (1) 
Target is a single protein chain

>  <Sequence Accession>  (1) 
P10635

>  <Reference>  (1) 
Bioorg Med Chem Lett 20 (1), 371-374 (2010)

>  <Pubmed ID>  (1) 
19926282

>  <DOI>  (1) 
10.1016/j.bmcl.2009.10.092

$$$$
