4wnv_ligand_97
     RDKit          2D

 11 12  0  0  0  0  0  0  0  0999 V2000
    0.0000   -0.0000   -0.0000 S   0  0  0  0  0  0  0  0  0  0  0  0
    1.4547    0.3312   -0.0000 C   0  0  0  0  0  0  0  0  0  0  0  0
   -0.7687    1.3128   -0.0000 C   0  0  0  0  0  0  0  0  0  0  0  0
    1.5730    1.8213   -0.0000 C   0  0  0  0  0  0  0  0  0  0  0  0
    0.2247    2.4482   -0.0000 C   0  0  0  0  0  0  0  0  0  0  0  0
    2.8621    2.5901   -0.0000 C   0  0  0  0  0  0  0  0  0  0  0  0
    2.8503    4.1039   -0.0000 C   0  0  0  0  0  0  0  0  0  0  0  0
    4.1512    1.8450   -0.0000 C   0  0  0  0  0  0  0  0  0  0  0  0
    4.1394    4.8608   -0.0000 N   0  0  0  0  0  0  0  0  0  0  0  0
    5.4403    2.6019   -0.0000 C   0  0  0  0  0  0  0  0  0  0  0  0
    5.4285    4.1157   -0.0000 C   0  0  0  0  0  0  0  0  0  0  0  0
  1  2  1  0
  1  3  1  0
  2  4  2  0
  3  5  2  0
  4  6  1  0
  6  7  2  0
  6  8  1  0
  7  9  1  0
  8 10  2  0
  9 11  2  0
  4  5  1  0
 10 11  1  0
M  END
>  <MolRegNo>  (1) 
299430

>  <m>  (1) 
=

>  <Value>  (1) 
248000

>  <Unit>  (1) 
nM

>  <Type>  (1) 
IC50

>  <pValue>  (1) 
0

>  <Ligand Efficiency>  (1) 
0

>  <Binding Efficiency>  (1) 
0

>  <Surface Efficiency>  (1) 
0

>  <Assay Index>  (1) 
238570

>  <Assay Category>  (1) 


>  <Assay Organism>  (1) 
Homo sapiens

>  <Target ID>  (1) 
11365

>  <Target Name>  (1) 
Cytochrome P450 2D6

>  <Target Organism>  (1) 
Homo sapiens

>  <Target Description>  (1) 
Target is a single protein chain

>  <Sequence Accession>  (1) 
P10635

>  <Reference>  (1) 
J Med Chem 48 (1), 224-239 (2005)

>  <Pubmed ID>  (1) 
15634016

>  <DOI>  (1) 
10.1021/jm049696n

$$$$
