4wnv_ligand_958
     RDKit          2D

 27 30  0  0  0  0  0  0  0  0999 V2000
    0.0000   -0.0000   -0.0000 O   0  0  0  0  0  0  0  0  0  0  0  0
   -1.1335   -0.9903   -0.0000 C   0  0  0  0  0  0  0  0  0  0  0  0
   -0.9903   -2.4698   -0.0000 N   0  0  0  0  0  0  0  0  0  0  0  0
   -2.6130   -0.6682   -0.0000 C   0  0  0  0  0  0  0  0  0  0  0  0
    0.2983   -3.2096   -0.0000 C   0  0  0  0  0  0  0  0  0  0  0  0
   -2.3744   -3.0664   -0.0000 C   0  0  0  0  0  0  0  0  0  0  0  0
   -3.3766   -1.9568   -0.0000 C   0  0  0  0  0  0  0  0  0  0  0  0
    0.2864   -4.7129   -0.0000 N   0  0  0  0  0  0  0  0  0  0  0  0
    1.5869   -2.4460   -0.0000 C   0  0  0  0  0  0  0  0  0  0  0  0
    1.5750   -5.4527   -0.0000 C   0  0  0  0  0  0  0  0  0  0  0  0
    2.8755   -3.1857   -0.0000 C   0  0  0  0  0  0  0  0  0  0  0  0
    1.5630   -6.9441   -0.0000 N   0  0  0  0  0  0  0  0  0  0  0  0
    2.8636   -4.6891   -0.0000 C   0  0  0  0  0  0  0  0  0  0  0  0
    4.3073   -2.6965   -0.0000 C   0  0  0  0  0  0  0  0  0  0  0  0
    0.2506   -7.6839   -0.0000 C   0  0  0  0  0  0  0  0  0  0  0  0
    4.2953   -5.1425   -0.0000 N   0  0  0  0  0  0  0  0  0  0  0  0
    5.1902   -3.9016   -0.0000 C   0  0  0  0  0  0  0  0  0  0  0  0
    4.7607   -1.2528   -0.0000 C   0  0  0  0  0  0  0  0  0  0  0  0
    0.2386   -9.1753   -0.0000 C   0  0  0  0  0  0  0  0  0  0  0  0
    6.6816   -3.8777   -0.0000 C   0  0  0  0  0  0  0  0  0  0  0  0
    1.5272   -9.9032   -0.0000 C   0  0  0  0  0  0  0  0  0  0  0  0
   -1.0738   -9.9032   -0.0000 C   0  0  0  0  0  0  0  0  0  0  0  0
    1.5272  -11.3946   -0.0000 C   0  0  0  0  0  0  0  0  0  0  0  0
    2.8158   -9.1276   -0.0000 C   0  0  0  0  0  0  0  0  0  0  0  0
   -1.0858  -11.3946   -0.0000 C   0  0  0  0  0  0  0  0  0  0  0  0
   -2.3863   -9.1395   -0.0000 C   0  0  0  0  0  0  0  0  0  0  0  0
    0.2028  -12.1463   -0.0000 C   0  0  0  0  0  0  0  0  0  0  0  0
  1  2  2  0
  2  3  1  0
  2  4  1  0
  3  5  1  0
  3  6  1  0
  4  7  1  0
  5  8  2  0
  5  9  1  0
  8 10  1  0
  9 11  2  0
 10 12  1  0
 10 13  2  0
 11 14  1  0
 12 15  1  0
 13 16  1  0
 14 17  2  0
 14 18  1  0
 15 19  1  0
 17 20  1  0
 19 21  2  0
 19 22  1  0
 21 23  1  0
 21 24  1  0
 22 25  2  0
 22 26  1  0
 23 27  2  0
  6  7  1  0
 11 13  1  0
 16 17  1  0
 25 27  1  0
M  END
>  <MolRegNo>  (1) 
611676

>  <m>  (1) 
=

>  <Value>  (1) 
1900

>  <Unit>  (1) 
nM

>  <Type>  (1) 
IC50

>  <pValue>  (1) 
5.72

>  <Ligand Efficiency>  (1) 
0

>  <Binding Efficiency>  (1) 
0

>  <Surface Efficiency>  (1) 
0

>  <Assay Index>  (1) 
464697

>  <Assay Category>  (1) 


>  <Assay Organism>  (1) 


>  <Target ID>  (1) 
11365

>  <Target Name>  (1) 
Cytochrome P450 2D6

>  <Target Organism>  (1) 
Homo sapiens

>  <Target Description>  (1) 
Target is a single protein chain

>  <Sequence Accession>  (1) 
P10635

>  <Reference>  (1) 
Bioorg Med Chem Lett 19 (23), 6813-6817 (2009)

>  <Pubmed ID>  (1) 
19846298

>  <DOI>  (1) 
10.1016/j.bmcl.2009.07.002

$$$$
