4wnv_ligand_548
     RDKit          2D

 34 37  0  0  0  0  0  0  0  0999 V2000
    0.0000   -0.0000   -0.0000 Cl  0  0  0  0  0  0  0  0  0  0  0  0
    1.2937   -0.7359   -0.0000 C   0  0  0  0  0  0  0  0  0  0  0  0
    1.2818   -2.2313   -0.0000 C   0  0  0  0  0  0  0  0  0  0  0  0
    2.5755    0.0237   -0.0000 C   0  0  0  0  0  0  0  0  0  0  0  0
   -0.0356   -2.9672   -0.0000 Cl  0  0  0  0  0  0  0  0  0  0  0  0
    2.5637   -2.9672   -0.0000 C   0  0  0  0  0  0  0  0  0  0  0  0
    3.8692   -0.7121   -0.0000 C   0  0  0  0  0  0  0  0  0  0  0  0
    3.8574   -2.2076   -0.0000 C   0  0  0  0  0  0  0  0  0  0  0  0
    5.1511    0.0593   -0.0000 N   0  0  0  0  0  0  0  0  0  0  0  0
    6.4448   -0.6765   -0.0000 C   0  0  0  0  0  0  0  0  0  0  0  0
    5.1392    1.5667   -0.0000 C   0  0  0  0  0  0  0  0  0  0  0  0
    7.7266    0.0950   -0.0000 C   0  0  0  0  0  0  0  0  0  0  0  0
    3.8218    2.3263   -0.0000 C   0  0  0  0  0  0  0  0  0  0  0  0
    9.0203   -0.6409   -0.0000 O   0  0  0  0  0  0  0  0  0  0  0  0
    7.7029    1.6142   -0.0000 N   0  0  0  0  0  0  0  0  0  0  0  0
    3.7980    3.8455   -0.0000 O   0  0  0  0  0  0  0  0  0  0  0  0
    8.9966    2.3738   -0.0000 C   0  0  0  0  0  0  0  0  0  0  0  0
    6.3854    2.3619   -0.0000 C   0  0  0  0  0  0  0  0  0  0  0  0
    2.4806    4.6051   -0.0000 C   0  0  0  0  0  0  0  0  0  0  0  0
    8.9847    3.8811   -0.0000 C   0  0  0  0  0  0  0  0  0  0  0  0
    9.8986    1.1988   -0.0000 C   0  0  0  0  0  0  0  0  0  0  0  0
    6.3736    3.8811   -0.0000 C   0  0  0  0  0  0  0  0  0  0  0  0
   10.2784    4.6407   -0.0000 C   0  0  0  0  0  0  0  0  0  0  0  0
    7.6673    4.6407   -0.0000 C   0  0  0  0  0  0  0  0  0  0  0  0
   11.3703    1.4124   -0.0000 N   0  0  0  0  0  0  0  0  0  0  0  0
   11.5721    3.9048   -0.0000 C   0  0  0  0  0  0  0  0  0  0  0  0
   10.2665    6.1480   -0.0000 C   0  0  0  0  0  0  0  0  0  0  0  0
   12.3911    0.3442   -0.0000 C   0  0  0  0  0  0  0  0  0  0  0  0
   12.0706    2.7536   -0.0000 C   0  0  0  0  0  0  0  0  0  0  0  0
   12.8539    4.6644   -0.0000 C   0  0  0  0  0  0  0  0  0  0  0  0
   11.5484    6.9195   -0.0000 C   0  0  0  0  0  0  0  0  0  0  0  0
   13.7322    1.0088   -0.0000 C   0  0  0  0  0  0  0  0  0  0  0  0
   13.5423    2.4925   -0.0000 C   0  0  0  0  0  0  0  0  0  0  0  0
   12.8421    6.1837   -0.0000 C   0  0  0  0  0  0  0  0  0  0  0  0
  1  2  1  0
  2  3  2  0
  2  4  1  0
  3  5  1  0
  3  6  1  0
  4  7  2  0
  6  8  2  0
  7  9  1  0
  9 10  1  0
  9 11  1  0
 10 12  1  0
 11 13  1  0
 12 14  2  0
 12 15  1  0
 13 16  1  0
 15 17  1  0
 15 18  1  0
 16 19  1  0
 17 20  1  0
 17 21  1  0
 18 22  1  0
 20 23  1  0
 20 24  1  0
 21 25  1  0
 23 26  2  0
 23 27  1  0
 25 28  1  0
 25 29  1  0
 26 30  1  0
 27 31  2  0
 28 32  1  0
 29 33  1  0
 30 34  2  0
  7  8  1  0
 22 24  1  0
 31 34  1  0
 32 33  1  0
M  END
>  <MolRegNo>  (1) 
426914

>  <m>  (1) 
=

>  <Value>  (1) 
820

>  <Unit>  (1) 
nM

>  <Type>  (1) 
IC50

>  <pValue>  (1) 
6.09

>  <Ligand Efficiency>  (1) 
0

>  <Binding Efficiency>  (1) 
0

>  <Surface Efficiency>  (1) 
0

>  <Assay Index>  (1) 
328211

>  <Assay Category>  (1) 


>  <Assay Organism>  (1) 


>  <Target ID>  (1) 
11365

>  <Target Name>  (1) 
Cytochrome P450 2D6

>  <Target Organism>  (1) 
Homo sapiens

>  <Target Description>  (1) 
Target is a single protein chain

>  <Sequence Accession>  (1) 
P10635

>  <Reference>  (1) 
Bioorg Med Chem Lett 18 (12), 3500-3503 (2008)

>  <Pubmed ID>  (1) 
18502123

>  <DOI>  (1) 
10.1016/j.bmcl.2008.05.027

$$$$
