4wnv_ligand_278
     RDKit          2D

 27 31  0  0  0  0  0  0  0  0999 V2000
    0.0000   -0.0000   -0.0000 N   0  0  0  0  0  0  0  0  0  0  0  0
   -1.4760   -0.3225   -0.0000 C   0  0  0  0  0  0  0  0  0  0  0  0
    1.0046   -1.0915   -0.0000 C   0  0  0  0  0  0  0  0  0  0  0  0
   -2.6170    0.6822   -0.0000 C   0  0  0  0  0  0  0  0  0  0  0  0
   -2.0837   -1.6868   -0.0000 C   0  0  0  0  0  0  0  0  0  0  0  0
    0.5457   -2.5054   -0.0000 C   0  0  0  0  0  0  0  0  0  0  0  0
    2.4434   -0.7566   -0.0000 C   0  0  0  0  0  0  0  0  0  0  0  0
   -3.9193   -0.0744   -0.0000 C   0  0  0  0  0  0  0  0  0  0  0  0
   -2.7659    2.2697   -0.0000 C   0  0  0  0  0  0  0  0  0  0  0  0
   -3.5969   -1.5380   -0.0000 C   0  0  0  0  0  0  0  0  0  0  0  0
    1.5504   -3.5969   -0.0000 C   0  0  0  0  0  0  0  0  0  0  0  0
   -5.2837    0.5953   -0.0000 C   0  0  0  0  0  0  0  0  0  0  0  0
   -4.1550    2.9395   -0.0000 C   0  0  0  0  0  0  0  0  0  0  0  0
   -4.5519   -2.6790   -0.0000 C   0  0  0  0  0  0  0  0  0  0  0  0
    2.9891   -3.2496   -0.0000 C   0  0  0  0  0  0  0  0  0  0  0  0
    1.0915   -5.0108   -0.0000 C   0  0  0  0  0  0  0  0  0  0  0  0
   -5.3953    2.1085   -0.0000 C   0  0  0  0  0  0  0  0  0  0  0  0
   -6.6480   -0.0124   -0.0000 C   0  0  0  0  0  0  0  0  0  0  0  0
   -6.0651   -2.6542   -0.0000 C   0  0  0  0  0  0  0  0  0  0  0  0
   -3.8325   -3.9565   -0.0000 C   0  0  0  0  0  0  0  0  0  0  0  0
    3.9938   -4.3286   -0.0000 C   0  0  0  0  0  0  0  0  0  0  0  0
    2.0837   -6.1023   -0.0000 C   0  0  0  0  0  0  0  0  0  0  0  0
   -7.0077   -1.4636   -0.0000 C   0  0  0  0  0  0  0  0  0  0  0  0
   -6.8340   -3.9317   -0.0000 C   0  0  0  0  0  0  0  0  0  0  0  0
   -4.5891   -5.2341   -0.0000 C   0  0  0  0  0  0  0  0  0  0  0  0
    3.5472   -5.7426   -0.0000 C   0  0  0  0  0  0  0  0  0  0  0  0
   -6.1023   -5.2216   -0.0000 C   0  0  0  0  0  0  0  0  0  0  0  0
  1  2  1  0
  1  3  1  0
  2  4  1  0
  2  5  1  0
  3  6  1  0
  3  7  1  0
  4  8  2  0
  4  9  1  0
  5 10  1  0
  6 11  1  0
  8 12  1  0
  9 13  2  0
 10 14  1  0
 11 15  2  0
 11 16  1  0
 12 17  2  0
 12 18  1  0
 14 19  2  0
 14 20  1  0
 15 21  1  0
 16 22  2  0
 18 23  1  0
 19 24  1  0
 20 25  2  0
 21 26  2  0
 24 27  2  0
  8 10  1  0
 13 17  1  0
 19 23  1  0
 22 26  1  0
 25 27  1  0
M  END
>  <MolRegNo>  (1) 
1153677

>  <m>  (1) 
=

>  <Value>  (1) 
150

>  <Unit>  (1) 
nM

>  <Type>  (1) 
IC50

>  <pValue>  (1) 
6.82

>  <Ligand Efficiency>  (1) 
0

>  <Binding Efficiency>  (1) 
0

>  <Surface Efficiency>  (1) 
0

>  <Assay Index>  (1) 
259863

>  <Assay Category>  (1) 


>  <Assay Organism>  (1) 
Homo sapiens

>  <Target ID>  (1) 
11365

>  <Target Name>  (1) 
Cytochrome P450 2D6

>  <Target Organism>  (1) 
Homo sapiens

>  <Target Description>  (1) 
Target is a single protein chain

>  <Sequence Accession>  (1) 
P10635

>  <Reference>  (1) 
J Med Chem 49 (8), 2417-2430 (2006)

>  <Pubmed ID>  (1) 
16610785

>  <DOI>  (1) 
10.1021/jm0508538

$$$$
