4wnv_ligand_533
     RDKit          2D

 34 37  0  0  0  0  0  0  0  0999 V2000
    0.0000   -0.0000   -0.0000 F   0  0  0  0  0  0  0  0  0  0  0  0
   -1.3252   -0.7283   -0.0000 C   0  0  0  0  0  0  0  0  0  0  0  0
   -1.3491   -2.2206   -0.0000 C   0  0  0  0  0  0  0  0  0  0  0  0
   -2.6385    0.0478   -0.0000 C   0  0  0  0  0  0  0  0  0  0  0  0
   -0.0597   -2.9728   -0.0000 N   0  0  0  0  0  0  0  0  0  0  0  0
   -2.6743   -2.9489   -0.0000 C   0  0  0  0  0  0  0  0  0  0  0  0
   -3.9637   -0.6805   -0.0000 C   0  0  0  0  0  0  0  0  0  0  0  0
    1.2416   -2.2206   -0.0000 C   0  0  0  0  0  0  0  0  0  0  0  0
   -3.9876   -2.1729   -0.0000 C   0  0  0  0  0  0  0  0  0  0  0  0
    1.2416   -0.7044   -0.0000 O   0  0  0  0  0  0  0  0  0  0  0  0
    2.5310   -2.9728   -0.0000 C   0  0  0  0  0  0  0  0  0  0  0  0
    3.8324   -2.2206   -0.0000 C   0  0  0  0  0  0  0  0  0  0  0  0
    5.1218   -2.9728   -0.0000 N   0  0  0  0  0  0  0  0  0  0  0  0
    6.4112   -2.2206   -0.0000 C   0  0  0  0  0  0  0  0  0  0  0  0
    5.0860   -4.4651   -0.0000 C   0  0  0  0  0  0  0  0  0  0  0  0
    7.6886   -2.9728   -0.0000 C   0  0  0  0  0  0  0  0  0  0  0  0
    6.3754   -5.2173   -0.0000 C   0  0  0  0  0  0  0  0  0  0  0  0
    7.6648   -4.4651   -0.0000 C   0  0  0  0  0  0  0  0  0  0  0  0
    8.9661   -5.2173   -0.0000 C   0  0  0  0  0  0  0  0  0  0  0  0
    8.9422   -6.7097   -0.0000 C   0  0  0  0  0  0  0  0  0  0  0  0
   10.2555   -4.4651   -0.0000 C   0  0  0  0  0  0  0  0  0  0  0  0
   10.2316   -7.4618   -0.0000 C   0  0  0  0  0  0  0  0  0  0  0  0
   11.5449   -5.2054   -0.0000 C   0  0  0  0  0  0  0  0  0  0  0  0
   11.5330   -6.7097   -0.0000 C   0  0  0  0  0  0  0  0  0  0  0  0
   12.8224   -7.4618   -0.0000 C   0  0  0  0  0  0  0  0  0  0  0  0
   12.7985   -8.9542   -0.0000 O   0  0  0  0  0  0  0  0  0  0  0  0
   14.1237   -6.6977   -0.0000 N   0  0  0  0  0  0  0  0  0  0  0  0
   15.4131   -7.4499   -0.0000 C   0  0  0  0  0  0  0  0  0  0  0  0
   16.7025   -6.6858   -0.0000 C   0  0  0  0  0  0  0  0  0  0  0  0
   15.3892   -8.9542   -0.0000 C   0  0  0  0  0  0  0  0  0  0  0  0
   16.6906   -5.1695   -0.0000 N   0  0  0  0  0  0  0  0  0  0  0  0
   17.9919   -7.4260   -0.0000 C   0  0  0  0  0  0  0  0  0  0  0  0
   16.6786   -9.7063   -0.0000 C   0  0  0  0  0  0  0  0  0  0  0  0
   17.9800   -8.9303   -0.0000 C   0  0  0  0  0  0  0  0  0  0  0  0
  1  2  1  0
  2  3  2  0
  2  4  1  0
  3  5  1  0
  3  6  1  0
  4  7  2  0
  5  8  1  0
  6  9  2  0
  8 10  2  0
  8 11  1  0
 11 12  1  0
 12 13  1  0
 13 14  1  0
 13 15  1  0
 14 16  1  0
 15 17  1  0
 16 18  1  0
 18 19  1  0
 19 20  2  0
 19 21  1  0
 20 22  1  0
 21 23  2  0
 22 24  2  0
 24 25  1  0
 25 26  2  0
 25 27  1  0
 27 28  1  0
 28 29  2  0
 28 30  1  0
 29 31  1  0
 29 32  1  0
 30 33  2  0
 32 34  2  0
  7  9  1  0
 17 18  1  0
 23 24  1  0
 33 34  1  0
M  END
>  <MolRegNo>  (1) 
427771

>  <m>  (1) 
=

>  <Value>  (1) 
10000

>  <Unit>  (1) 
nM

>  <Type>  (1) 
IC50

>  <pValue>  (1) 
5

>  <Ligand Efficiency>  (1) 
0

>  <Binding Efficiency>  (1) 
0

>  <Surface Efficiency>  (1) 
0

>  <Assay Index>  (1) 
326681

>  <Assay Category>  (1) 


>  <Assay Organism>  (1) 


>  <Target ID>  (1) 
11365

>  <Target Name>  (1) 
Cytochrome P450 2D6

>  <Target Organism>  (1) 
Homo sapiens

>  <Target Description>  (1) 
Target is a single protein chain

>  <Sequence Accession>  (1) 
P10635

>  <Reference>  (1) 
Bioorg Med Chem Lett 18 (8), 2580-2584 (2008)

>  <Pubmed ID>  (1) 
18378449

>  <DOI>  (1) 
10.1016/j.bmcl.2008.03.041

$$$$
