4wnv_ligand_864
     RDKit          2D

 30 34  0  0  0  0  0  0  0  0999 V2000
    0.0000   -0.0000   -0.0000 O   0  0  0  0  0  0  0  0  0  0  0  0
   -1.0114    1.1172   -0.0000 C   0  0  0  0  0  0  0  0  0  0  0  0
    1.4465    0.3175   -0.0000 C   0  0  0  0  0  0  0  0  0  0  0  0
   -2.4814    0.8232   -0.0000 C   0  0  0  0  0  0  0  0  0  0  0  0
   -0.5645    2.5519   -0.0000 C   0  0  0  0  0  0  0  0  0  0  0  0
   -3.4928    1.9404   -0.0000 C   0  0  0  0  0  0  0  0  0  0  0  0
   -1.5759    3.6692   -0.0000 C   0  0  0  0  0  0  0  0  0  0  0  0
   -3.0459    3.3752   -0.0000 C   0  0  0  0  0  0  0  0  0  0  0  0
   -4.0572    4.4924   -0.0000 C   0  0  0  0  0  0  0  0  0  0  0  0
   -3.6104    5.9271   -0.0000 N   0  0  0  0  0  0  0  0  0  0  0  0
   -4.5041    7.1502   -0.0000 C   0  0  0  0  0  0  0  0  0  0  0  0
   -2.1991    6.3975   -0.0000 C   0  0  0  0  0  0  0  0  0  0  0  0
   -3.6339    8.3732   -0.0000 N   0  0  0  0  0  0  0  0  0  0  0  0
   -6.0094    7.1619   -0.0000 N   0  0  0  0  0  0  0  0  0  0  0  0
   -2.2109    7.9028   -0.0000 C   0  0  0  0  0  0  0  0  0  0  0  0
   -0.9173    5.6566   -0.0000 C   0  0  0  0  0  0  0  0  0  0  0  0
   -6.7621    5.8801   -0.0000 C   0  0  0  0  0  0  0  0  0  0  0  0
   -6.7621    8.4673   -0.0000 C   0  0  0  0  0  0  0  0  0  0  0  0
   -0.9290    8.6554   -0.0000 C   0  0  0  0  0  0  0  0  0  0  0  0
    0.3646    6.4210   -0.0000 C   0  0  0  0  0  0  0  0  0  0  0  0
   -8.2674    5.8918   -0.0000 C   0  0  0  0  0  0  0  0  0  0  0  0
   -8.2674    8.4790   -0.0000 C   0  0  0  0  0  0  0  0  0  0  0  0
    0.3528    7.9263   -0.0000 C   0  0  0  0  0  0  0  0  0  0  0  0
   -9.0200    7.1972   -0.0000 C   0  0  0  0  0  0  0  0  0  0  0  0
  -10.5253    7.2090   -0.0000 N   0  0  0  0  0  0  0  0  0  0  0  0
  -11.4191    8.4320   -0.0000 N   0  0  0  0  0  0  0  0  0  0  0  0
  -11.4191    6.0094   -0.0000 C   0  0  0  0  0  0  0  0  0  0  0  0
  -12.8538    7.9851   -0.0000 C   0  0  0  0  0  0  0  0  0  0  0  0
  -12.8538    6.4798   -0.0000 C   0  0  0  0  0  0  0  0  0  0  0  0
  -14.0769    5.6096   -0.0000 C   0  0  0  0  0  0  0  0  0  0  0  0
  1  2  1  0
  1  3  1  0
  2  4  2  0
  2  5  1  0
  4  6  1  0
  5  7  2  0
  6  8  2  0
  8  9  1  0
  9 10  1  0
 10 11  1  0
 10 12  1  0
 11 13  2  0
 11 14  1  0
 12 15  2  0
 12 16  1  0
 14 17  1  0
 14 18  1  0
 15 19  1  0
 16 20  2  0
 17 21  1  0
 18 22  1  0
 19 23  2  0
 21 24  1  0
 24 25  1  0
 25 26  1  0
 25 27  1  0
 26 28  2  0
 27 29  2  0
 29 30  1  0
  7  8  1  0
 13 15  1  0
 20 23  1  0
 22 24  1  0
 28 29  1  0
M  END
>  <MolRegNo>  (1) 
562937

>  <m>  (1) 
=

>  <Value>  (1) 
7319

>  <Unit>  (1) 
nM

>  <Type>  (1) 
IC50

>  <pValue>  (1) 
5.14

>  <Ligand Efficiency>  (1) 
0

>  <Binding Efficiency>  (1) 
0

>  <Surface Efficiency>  (1) 
0

>  <Assay Index>  (1) 
429822

>  <Assay Category>  (1) 


>  <Assay Organism>  (1) 


>  <Target ID>  (1) 
11365

>  <Target Name>  (1) 
Cytochrome P450 2D6

>  <Target Organism>  (1) 
Homo sapiens

>  <Target Description>  (1) 
Target is a single protein chain

>  <Sequence Accession>  (1) 
P10635

>  <Reference>  (1) 
Bioorg Med Chem Lett 19 (15), 4380-4384 (2009)

>  <Pubmed ID>  (1) 
19553115

>  <DOI>  (1) 
10.1016/j.bmcl.2009.05.086

$$$$
