4wnv_ligand_1049
     RDKit          2D

 20 23  0  0  0  0  0  0  0  0999 V2000
    0.0000   -0.0000   -0.0000 O   0  0  0  0  0  0  0  0  0  0  0  0
   -0.7575    1.3020   -0.0000 C   0  0  0  0  0  0  0  0  0  0  0  0
    1.4795    0.0118   -0.0000 C   0  0  0  0  0  0  0  0  0  0  0  0
   -2.2607    1.3138   -0.0000 C   0  0  0  0  0  0  0  0  0  0  0  0
   -3.5508    2.0713   -0.0000 C   0  0  0  0  0  0  0  0  0  0  0  0
   -2.2725   -0.1657   -0.0000 C   0  0  0  0  0  0  0  0  0  0  0  0
   -2.2607    2.8052   -0.0000 C   0  0  0  0  0  0  0  0  0  0  0  0
   -4.3202    3.3733   -0.0000 C   0  0  0  0  0  0  0  0  0  0  0  0
   -4.8528    1.3256   -0.0000 C   0  0  0  0  0  0  0  0  0  0  0  0
   -3.5745   -0.8877   -0.0000 N   0  0  0  0  0  0  0  0  0  0  0  0
   -5.8234    3.3733   -0.0000 C   0  0  0  0  0  0  0  0  0  0  0  0
   -3.5863    4.6871   -0.0000 C   0  0  0  0  0  0  0  0  0  0  0  0
   -4.8646   -0.1539   -0.0000 C   0  0  0  0  0  0  0  0  0  0  0  0
   -6.5927    4.6753   -0.0000 C   0  0  0  0  0  0  0  0  0  0  0  0
   -4.3557    5.9891   -0.0000 C   0  0  0  0  0  0  0  0  0  0  0  0
   -5.8589    5.9891   -0.0000 C   0  0  0  0  0  0  0  0  0  0  0  0
   -8.0959    4.6753   -0.0000 C   0  0  0  0  0  0  0  0  0  0  0  0
   -6.6282    7.2910   -0.0000 C   0  0  0  0  0  0  0  0  0  0  0  0
   -8.8771    5.9772   -0.0000 C   0  0  0  0  0  0  0  0  0  0  0  0
   -8.1433    7.2910   -0.0000 C   0  0  0  0  0  0  0  0  0  0  0  0
  1  2  1  0
  1  3  1  0
  4  2  1  6
  4  5  1  0
  4  6  1  0
  4  7  1  0
  5  8  1  6
  5  9  1  0
  6 10  1  0
  8 11  2  0
  8 12  1  0
  9 13  1  0
 11 14  1  0
 12 15  2  0
 14 16  2  0
 14 17  1  0
 16 18  1  0
 17 19  2  0
 18 20  2  0
  5  7  1  0
 10 13  1  0
 15 16  1  0
 19 20  1  0
M  END
>  <MolRegNo>  (1) 
650331

>  <m>  (1) 
=

>  <Value>  (1) 
8000

>  <Unit>  (1) 
nM

>  <Type>  (1) 
IC50

>  <pValue>  (1) 
5.1

>  <Ligand Efficiency>  (1) 
0

>  <Binding Efficiency>  (1) 
0

>  <Surface Efficiency>  (1) 
0

>  <Assay Index>  (1) 
487211

>  <Assay Category>  (1) 


>  <Assay Organism>  (1) 
Homo sapiens

>  <Target ID>  (1) 
11365

>  <Target Name>  (1) 
Cytochrome P450 2D6

>  <Target Organism>  (1) 
Homo sapiens

>  <Target Description>  (1) 
Target is a single protein chain

>  <Sequence Accession>  (1) 
P10635

>  <Reference>  (1) 
J Med Chem 53 (13), 4989-5001 (2010)

>  <Pubmed ID>  (1) 
20527970

>  <DOI>  (1) 
10.1021/jm100481d

$$$$
