4wnv_ligand_351
     RDKit          2D

 33 35  0  0  0  0  0  0  0  0999 V2000
    0.0000   -0.0000   -0.0000 F   0  0  0  0  0  0  0  0  0  0  0  0
    1.2928   -0.7422   -0.0000 C   0  0  0  0  0  0  0  0  0  0  0  0
    2.5856    0.0239   -0.0000 C   0  0  0  0  0  0  0  0  0  0  0  0
    1.2808   -2.2504   -0.0000 C   0  0  0  0  0  0  0  0  0  0  0  0
    2.5736    1.5442   -0.0000 F   0  0  0  0  0  0  0  0  0  0  0  0
    3.8784   -0.7182   -0.0000 C   0  0  0  0  0  0  0  0  0  0  0  0
    2.5736   -2.9926   -0.0000 C   0  0  0  0  0  0  0  0  0  0  0  0
    3.8664   -2.2265   -0.0000 C   0  0  0  0  0  0  0  0  0  0  0  0
    2.5616   -4.4889   -0.0000 F   0  0  0  0  0  0  0  0  0  0  0  0
    5.1592   -2.9686   -0.0000 C   0  0  0  0  0  0  0  0  0  0  0  0
    6.4520   -2.2025   -0.0000 C   0  0  0  0  0  0  0  0  0  0  0  0
    5.1472   -4.4649   -0.0000 C   0  0  0  0  0  0  0  0  0  0  0  0
    6.4400   -0.6823   -0.0000 N   0  0  0  0  0  0  0  0  0  0  0  0
    7.7448   -2.9567   -0.0000 C   0  0  0  0  0  0  0  0  0  0  0  0
    6.4400   -5.2071   -0.0000 C   0  0  0  0  0  0  0  0  0  0  0  0
    7.7328   -4.4530   -0.0000 N   0  0  0  0  0  0  0  0  0  0  0  0
    9.0256   -5.1951   -0.0000 C   0  0  0  0  0  0  0  0  0  0  0  0
   10.3184   -4.4290   -0.0000 N   0  0  0  0  0  0  0  0  0  0  0  0
    9.0136   -6.6914   -0.0000 C   0  0  0  0  0  0  0  0  0  0  0  0
   11.6112   -5.1712   -0.0000 C   0  0  0  0  0  0  0  0  0  0  0  0
   10.3064   -7.4336   -0.0000 N   0  0  0  0  0  0  0  0  0  0  0  0
   12.9040   -4.4051   -0.0000 N   0  0  0  0  0  0  0  0  0  0  0  0
   11.5992   -6.6675   -0.0000 C   0  0  0  0  0  0  0  0  0  0  0  0
   14.1968   -5.1592   -0.0000 C   0  0  0  0  0  0  0  0  0  0  0  0
   12.8800   -7.4096   -0.0000 N   0  0  0  0  0  0  0  0  0  0  0  0
   14.1848   -6.6555   -0.0000 C   0  0  0  0  0  0  0  0  0  0  0  0
   11.3000   -0.5746   -0.0000 F   0  0  0  0  0  0  0  0  0  0  0  0
   12.0302    0.7422   -0.0000 C   0  0  0  0  0  0  0  0  0  0  0  0
   10.7014    1.5083   -0.0000 F   0  0  0  0  0  0  0  0  0  0  0  0
   12.7603    2.0709   -0.0000 F   0  0  0  0  0  0  0  0  0  0  0  0
   13.3349    0.0120   -0.0000 C   0  0  0  0  0  0  0  0  0  0  0  0
   13.3229   -1.4843   -0.0000 O   0  0  0  0  0  0  0  0  0  0  0  0
   14.6157    0.7900   -0.0000 O   0  0  0  0  0  0  0  0  0  0  0  0
  1  2  1  0
  2  3  2  0
  2  4  1  0
  3  5  1  0
  3  6  1  0
  4  7  2  0
  6  8  2  0
  7  9  1  0
 10  8  1  6
 10 11  1  0
 10 12  1  0
 11 13  1  1
 11 14  1  0
 12 15  1  0
 14 16  1  0
 16 17  1  0
 17 18  2  0
 17 19  1  0
 18 20  1  0
 19 21  2  0
 20 22  2  0
 20 23  1  0
 22 24  1  0
 23 25  2  0
 24 26  2  0
 27 28  1  0
 28 29  1  0
 28 30  1  0
 28 31  1  0
 31 32  2  0
 31 33  1  0
  7  8  1  0
 15 16  1  0
 21 23  1  0
 25 26  1  0
M  END
>  <MolRegNo>  (1) 
385308

>  <m>  (1) 
=

>  <Value>  (1) 
11600

>  <Unit>  (1) 
nM

>  <Type>  (1) 
IC50

>  <pValue>  (1) 
4.94

>  <Ligand Efficiency>  (1) 
0

>  <Binding Efficiency>  (1) 
0

>  <Surface Efficiency>  (1) 
0

>  <Assay Index>  (1) 
288258

>  <Assay Category>  (1) 


>  <Assay Organism>  (1) 


>  <Target ID>  (1) 
11365

>  <Target Name>  (1) 
Cytochrome P450 2D6

>  <Target Organism>  (1) 
Homo sapiens

>  <Target Description>  (1) 
Target is a single protein chain

>  <Sequence Accession>  (1) 
P10635

>  <Reference>  (1) 
Bioorg Med Chem Lett 17 (16), 4579-4583 (2007)

>  <Pubmed ID>  (1) 
17562364

>  <DOI>  (1) 
10.1016/j.bmcl.2007.05.087

$$$$
