4wnv_ligand_28
     RDKit          2D

 16 17  0  0  0  0  0  0  0  0999 V2000
    0.0000   -0.0000   -0.0000 O   0  0  0  0  0  0  0  0  0  0  0  0
    1.4535    0.3309   -0.0000 N   0  0  0  0  0  0  0  0  0  0  0  0
   -0.1654   -1.4772   -0.0000 C   0  0  0  0  0  0  0  0  0  0  0  0
    2.1980   -0.9572   -0.0000 C   0  0  0  0  0  0  0  0  0  0  0  0
   -1.4535   -2.2216   -0.0000 C   0  0  0  0  0  0  0  0  0  0  0  0
    1.2054   -2.0798   -0.0000 C   0  0  0  0  0  0  0  0  0  0  0  0
   -2.7771   -1.4653   -0.0000 C   0  0  0  0  0  0  0  0  0  0  0  0
   -1.4772   -3.7106   -0.0000 C   0  0  0  0  0  0  0  0  0  0  0  0
   -4.0888   -2.1980   -0.0000 C   0  0  0  0  0  0  0  0  0  0  0  0
   -2.7889   -4.4433   -0.0000 C   0  0  0  0  0  0  0  0  0  0  0  0
   -4.1006   -3.6752   -0.0000 C   0  0  0  0  0  0  0  0  0  0  0  0
   -5.4123   -4.4078   -0.0000 O   0  0  0  0  0  0  0  0  0  0  0  0
   -6.7240   -3.6515   -0.0000 C   0  0  0  0  0  0  0  0  0  0  0  0
   -8.0357   -4.3842   -0.0000 C   0  0  0  0  0  0  0  0  0  0  0  0
   -9.3474   -3.6279   -0.0000 C   0  0  0  0  0  0  0  0  0  0  0  0
  -10.6592   -4.3606   -0.0000 C   0  0  0  0  0  0  0  0  0  0  0  0
  1  2  1  0
  1  3  1  0
  2  4  2  0
  3  5  1  0
  3  6  2  0
  5  7  2  0
  5  8  1  0
  7  9  1  0
  8 10  2  0
  9 11  2  0
 11 12  1  0
 12 13  1  0
 13 14  1  0
 14 15  1  0
 15 16  1  0
  4  6  1  0
 10 11  1  0
M  END
>  <MolRegNo>  (1) 
250640

>  <m>  (1) 
=

>  <Value>  (1) 
86350

>  <Unit>  (1) 
nM

>  <Type>  (1) 
IC50

>  <pValue>  (1) 
4.06

>  <Ligand Efficiency>  (1) 
0

>  <Binding Efficiency>  (1) 
0

>  <Surface Efficiency>  (1) 
0

>  <Assay Index>  (1) 
51627

>  <Assay Category>  (1) 


>  <Assay Organism>  (1) 


>  <Target ID>  (1) 
11365

>  <Target Name>  (1) 
Cytochrome P450 2D6

>  <Target Organism>  (1) 
Homo sapiens

>  <Target Description>  (1) 
Target is a single protein chain

>  <Sequence Accession>  (1) 
P10635

>  <Reference>  (1) 
J Med Chem 46 (25), 5416-5427 (2003)

>  <Pubmed ID>  (1) 
14640550

>  <DOI>  (1) 
10.1021/jm020557k

$$$$
