4wnv_ligand_902
     RDKit          2D

 30 32  0  0  0  0  0  0  0  0999 V2000
    0.0000   -0.0000   -0.0000 Cl  0  0  0  0  0  0  0  0  0  0  0  0
   -0.0119    1.5087   -0.0000 C   0  0  0  0  0  0  0  0  0  0  0  0
   -1.3186    2.2690   -0.0000 C   0  0  0  0  0  0  0  0  0  0  0  0
    1.2830    2.2690   -0.0000 C   0  0  0  0  0  0  0  0  0  0  0  0
   -2.6253    1.5324   -0.0000 C   0  0  0  0  0  0  0  0  0  0  0  0
   -1.3305    3.7895   -0.0000 C   0  0  0  0  0  0  0  0  0  0  0  0
    1.2711    3.7895   -0.0000 C   0  0  0  0  0  0  0  0  0  0  0  0
   -3.9321    0.7959   -0.0000 N   0  0  0  0  0  0  0  0  0  0  0  0
   -0.0475    4.5498   -0.0000 C   0  0  0  0  0  0  0  0  0  0  0  0
    2.5541    4.5498   -0.0000 N   0  0  0  0  0  0  0  0  0  0  0  0
    3.8370    3.8133   -0.0000 C   0  0  0  0  0  0  0  0  0  0  0  0
    2.5422    6.0585   -0.0000 C   0  0  0  0  0  0  0  0  0  0  0  0
    3.9915    2.3284   -0.0000 C   0  0  0  0  0  0  0  0  0  0  0  0
    5.2032    4.4310   -0.0000 C   0  0  0  0  0  0  0  0  0  0  0  0
    3.8252    6.8188   -0.0000 C   0  0  0  0  0  0  0  0  0  0  0  0
    5.4407    2.0314   -0.0000 N   0  0  0  0  0  0  0  0  0  0  0  0
    6.2010    3.3381   -0.0000 C   0  0  0  0  0  0  0  0  0  0  0  0
    3.8014    8.3156   -0.0000 C   0  0  0  0  0  0  0  0  0  0  0  0
    5.1081    6.0822   -0.0000 C   0  0  0  0  0  0  0  0  0  0  0  0
    6.0347    0.6771   -0.0000 S   0  0  0  0  0  0  0  0  0  0  0  0
    5.0725    9.0877   -0.0000 C   0  0  0  0  0  0  0  0  0  0  0  0
    2.4828    9.0640   -0.0000 C   0  0  0  0  0  0  0  0  0  0  0  0
    6.3911    6.8425   -0.0000 C   0  0  0  0  0  0  0  0  0  0  0  0
    5.2626   -0.6058   -0.0000 O   0  0  0  0  0  0  0  0  0  0  0  0
    4.5260    0.7009   -0.0000 O   0  0  0  0  0  0  0  0  0  0  0  0
    7.5196    0.5346   -0.0000 C   0  0  0  0  0  0  0  0  0  0  0  0
    6.3673    8.3512   -0.0000 C   0  0  0  0  0  0  0  0  0  0  0  0
    2.4590   10.5726   -0.0000 F   0  0  0  0  0  0  0  0  0  0  0  0
    1.1761    8.3156   -0.0000 F   0  0  0  0  0  0  0  0  0  0  0  0
    1.1642    9.8361   -0.0000 F   0  0  0  0  0  0  0  0  0  0  0  0
  1  2  1  0
  2  3  2  0
  2  4  1  0
  3  5  1  0
  3  6  1  0
  4  7  2  0
  5  8  3  0
  6  9  2  0
  7 10  1  0
 11 10  1  1
 10 12  1  0
 11 13  1  0
 11 14  1  0
 12 15  1  0
 13 16  1  0
 14 17  1  0
 15 18  2  0
 15 19  1  0
 16 20  1  0
 18 21  1  0
 18 22  1  0
 19 23  2  0
 20 24  2  0
 20 25  2  0
 20 26  1  0
 21 27  2  0
 22 28  1  0
 22 29  1  0
 22 30  1  0
  7  9  1  0
 16 17  1  0
 23 27  1  0
M  END
>  <MolRegNo>  (1) 
590160

>  <m>  (1) 
=

>  <Value>  (1) 
15000

>  <Unit>  (1) 
nM

>  <Type>  (1) 
IC50

>  <pValue>  (1) 
4.82

>  <Ligand Efficiency>  (1) 
0

>  <Binding Efficiency>  (1) 
0

>  <Surface Efficiency>  (1) 
0

>  <Assay Index>  (1) 
452357

>  <Assay Category>  (1) 


>  <Assay Organism>  (1) 


>  <Target ID>  (1) 
11365

>  <Target Name>  (1) 
Cytochrome P450 2D6

>  <Target Organism>  (1) 
Homo sapiens

>  <Target Description>  (1) 
Target is a single protein chain

>  <Sequence Accession>  (1) 
P10635

>  <Reference>  (1) 
Bioorg Med Chem Lett 20 (1), 371-374 (2010)

>  <Pubmed ID>  (1) 
19926282

>  <DOI>  (1) 
10.1016/j.bmcl.2009.10.092

$$$$
