4wnv_ligand_298
     RDKit          2D

 36 39  0  0  1  0  0  0  0  0999 V2000
    0.0000   -0.0000   -0.0000 O   0  0  0  0  0  0  0  0  0  0  0  0
   -0.9099   -1.1817   -0.0000 C   0  0  0  0  0  0  0  0  0  0  0  0
   -2.4107   -0.9926   -0.0000 N   0  0  0  0  0  0  0  0  0  0  0  0
   -0.3309   -2.5525   -0.0000 N   0  0  0  0  0  0  0  0  0  0  0  0
   -3.4387   -2.0798   -0.0000 C   0  0  0  0  0  0  0  0  0  0  0  0
   -3.1433    0.3309   -0.0000 C   0  0  0  0  0  0  0  0  0  0  0  0
    1.1108   -2.8715   -0.0000 C   0  0  0  0  0  0  0  0  0  0  0  0
   -1.1108   -3.8287   -0.0000 C   0  0  0  0  0  0  0  0  0  0  0  0
   -4.8095   -1.4417   -0.0000 C   0  0  0  0  0  0  0  0  0  0  0  0
   -4.6204    0.0591   -0.0000 C   0  0  0  0  0  0  0  0  0  0  0  0
    1.2408   -4.3486   -0.0000 C   0  0  0  0  0  0  0  0  0  0  0  0
   -0.1300   -4.9395   -0.0000 C   0  0  0  0  0  0  0  0  0  0  0  0
   -6.1330   -2.1625   -0.0000 N   0  0  0  0  0  0  0  0  0  0  0  0
    2.5170   -5.1049   -0.0000 N   0  0  0  0  0  0  0  0  0  0  0  0
   -7.4329   -1.3826   -0.0000 C   0  0  0  0  0  0  0  0  0  0  0  0
   -6.2157   -3.6396   -0.0000 C   0  0  0  0  0  0  0  0  0  0  0  0
    3.8051   -4.3486   -0.0000 C   0  0  0  0  0  0  0  0  0  0  0  0
   -7.4210    0.1300   -0.0000 O   0  0  0  0  0  0  0  0  0  0  0  0
   -8.7564   -2.1034   -0.0000 C   0  0  0  0  0  0  0  0  0  0  0  0
    5.0931   -5.0931   -0.0000 C   0  0  0  0  0  0  0  0  0  0  0  0
    3.7932   -2.8361   -0.0000 C   0  0  0  0  0  0  0  0  0  0  0  0
  -10.0562   -1.3235   -0.0000 C   0  0  0  0  0  0  0  0  0  0  0  0
   -8.7800   -3.5805   -0.0000 C   0  0  0  0  0  0  0  0  0  0  0  0
    5.0813   -6.5820   -0.0000 C   0  0  0  0  0  0  0  0  0  0  0  0
    6.3811   -4.3368   -0.0000 C   0  0  0  0  0  0  0  0  0  0  0  0
  -11.3797   -2.0443   -0.0000 C   0  0  0  0  0  0  0  0  0  0  0  0
  -10.0917   -4.3014   -0.0000 C   0  0  0  0  0  0  0  0  0  0  0  0
  -11.4152   -3.5333   -0.0000 C   0  0  0  0  0  0  0  0  0  0  0  0
  -12.7387   -4.2541   -0.0000 C   0  0  0  0  0  0  0  0  0  0  0  0
  -14.0267   -3.4742   -0.0000 C   0  0  0  0  0  0  0  0  0  0  0  0
  -12.7623   -5.7430   -0.0000 C   0  0  0  0  0  0  0  0  0  0  0  0
  -15.3502   -4.1950   -0.0000 C   0  0  0  0  0  0  0  0  0  0  0  0
  -14.0740   -6.4639   -0.0000 C   0  0  0  0  0  0  0  0  0  0  0  0
  -15.3857   -5.6839   -0.0000 C   0  0  0  0  0  0  0  0  0  0  0  0
  -16.7091   -6.4048   -0.0000 C   0  0  0  0  0  0  0  0  0  0  0  0
  -18.0090   -5.6249   -0.0000 C   0  0  0  0  0  0  0  0  0  0  0  0
  1  2  2  0
  2  3  1  0
  2  4  1  0
  3  5  1  0
  3  6  1  0
  4  7  1  0
  4  8  1  0
  5  9  1  0
  6 10  1  0
  7 11  1  0
  8 12  1  0
  9 13  1  1
 11 14  1  6
 13 15  1  0
 13 16  1  0
 17 14  1  0
 15 18  2  0
 15 19  1  0
 17 20  1  0
 17 21  1  1
 19 22  2  0
 19 23  1  0
 20 24  1  0
 20 25  1  0
 22 26  1  0
 23 27  2  0
 26 28  2  0
 28 29  1  0
 29 30  2  0
 29 31  1  0
 30 32  1  0
 31 33  2  0
 32 34  2  0
 34 35  1  0
 35 36  1  0
  9 10  1  0
 11 12  1  0
 27 28  1  0
 33 34  1  0
M  END
>  <MolRegNo>  (1) 
359401

>  <m>  (1) 
=

>  <Value>  (1) 
4300

>  <Unit>  (1) 
nM

>  <Type>  (1) 
IC50

>  <pValue>  (1) 
5.37

>  <Ligand Efficiency>  (1) 
0

>  <Binding Efficiency>  (1) 
0

>  <Surface Efficiency>  (1) 
0

>  <Assay Index>  (1) 
268140

>  <Assay Category>  (1) 


>  <Assay Organism>  (1) 
Homo sapiens

>  <Target ID>  (1) 
11365

>  <Target Name>  (1) 
Cytochrome P450 2D6

>  <Target Organism>  (1) 
Homo sapiens

>  <Target Description>  (1) 
Target is a single protein chain

>  <Sequence Accession>  (1) 
P10635

>  <Reference>  (1) 
Bioorg Med Chem Lett 16 (18), 4922-4930 (2006)

>  <Pubmed ID>  (1) 
16824755

>  <DOI>  (1) 
10.1016/j.bmcl.2006.06.049

$$$$
