4wnv_ligand_396
     RDKit          2D

 19 21  0  0  1  0  0  0  0  0999 V2000
    0.0000   -0.0000   -0.0000 Cl  0  0  0  0  0  0  0  0  0  0  0  0
    1.2931    0.7592   -0.0000 C   0  0  0  0  0  0  0  0  0  0  0  0
    2.5743    0.0237   -0.0000 C   0  0  0  0  0  0  0  0  0  0  0  0
    1.2812    2.2777   -0.0000 C   0  0  0  0  0  0  0  0  0  0  0  0
    2.5624   -1.4592   -0.0000 Cl  0  0  0  0  0  0  0  0  0  0  0  0
    3.8673    0.7830   -0.0000 C   0  0  0  0  0  0  0  0  0  0  0  0
    2.5624    3.0369   -0.0000 C   0  0  0  0  0  0  0  0  0  0  0  0
   -0.0237    3.0369   -0.0000 C   0  0  0  0  0  0  0  0  0  0  0  0
    3.8555    2.3014   -0.0000 C   0  0  0  0  0  0  0  0  0  0  0  0
   -0.0356    4.5435   -0.0000 N   0  0  0  0  0  0  0  0  0  0  0  0
    1.2456    5.3028   -0.0000 C   0  0  0  0  0  0  0  0  0  0  0  0
   -1.3405    5.3028   -0.0000 C   0  0  0  0  0  0  0  0  0  0  0  0
    1.3880    6.8094   -0.0000 C   0  0  0  0  0  0  0  0  0  0  0  0
    2.5980    4.7096   -0.0000 C   0  0  0  0  0  0  0  0  0  0  0  0
   -1.3524    6.8094   -0.0000 C   0  0  0  0  0  0  0  0  0  0  0  0
    2.8471    7.1297   -0.0000 N   0  0  0  0  0  0  0  0  0  0  0  0
    3.5945    5.8366   -0.0000 C   0  0  0  0  0  0  0  0  0  0  0  0
   -0.6169    8.1262   -0.0000 C   0  0  0  0  0  0  0  0  0  0  0  0
   -2.1116    8.1262   -0.0000 C   0  0  0  0  0  0  0  0  0  0  0  0
  1  2  1  0
  2  3  2  0
  2  4  1  0
  3  5  1  0
  3  6  1  0
  4  7  2  0
  4  8  1  0
  6  9  2  0
  8 10  1  0
 11 10  1  6
 10 12  1  0
 11 13  1  0
 11 14  1  0
 12 15  1  0
 13 16  1  0
 14 17  1  0
 15 18  1  0
 15 19  1  0
  7  9  1  0
 16 17  1  0
 18 19  1  0
M  END
>  <MolRegNo>  (1) 
412770

>  <m>  (1) 
=

>  <Value>  (1) 
30

>  <Unit>  (1) 
nM

>  <Type>  (1) 
IC50

>  <pValue>  (1) 
7.52

>  <Ligand Efficiency>  (1) 
0

>  <Binding Efficiency>  (1) 
0

>  <Surface Efficiency>  (1) 
0

>  <Assay Index>  (1) 
303145

>  <Assay Category>  (1) 


>  <Assay Organism>  (1) 
Homo sapiens

>  <Target ID>  (1) 
11365

>  <Target Name>  (1) 
Cytochrome P450 2D6

>  <Target Organism>  (1) 
Homo sapiens

>  <Target Description>  (1) 
Target is a single protein chain

>  <Sequence Accession>  (1) 
P10635

>  <Reference>  (1) 
Bioorg Med Chem Lett 17 (7), 2022-2025 (2007)

>  <Pubmed ID>  (1) 
17267217

>  <DOI>  (1) 
10.1016/j.bmcl.2007.01.020

$$$$
