4wnv_ligand_711
     RDKit          2D

 24 26  0  0  0  0  0  0  0  0999 V2000
    0.0000   -0.0000   -0.0000 O   0  0  0  0  0  0  0  0  0  0  0  0
   -1.3077    0.7608   -0.0000 C   0  0  0  0  0  0  0  0  0  0  0  0
   -1.3196    2.2706   -0.0000 O   0  0  0  0  0  0  0  0  0  0  0  0
   -2.6153    0.0238   -0.0000 N   0  0  0  0  0  0  0  0  0  0  0  0
   -0.0357    3.0314   -0.0000 C   0  0  0  0  0  0  0  0  0  0  0  0
   -2.6391   -1.4622   -0.0000 C   0  0  0  0  0  0  0  0  0  0  0  0
   -3.9349    0.7727   -0.0000 C   0  0  0  0  0  0  0  0  0  0  0  0
    1.2482    2.2944   -0.0000 C   0  0  0  0  0  0  0  0  0  0  0  0
   -1.4622   -2.3419   -0.0000 C   0  0  0  0  0  0  0  0  0  0  0  0
   -3.8755   -2.3181   -0.0000 C   0  0  0  0  0  0  0  0  0  0  0  0
   -5.2426    0.0238   -0.0000 C   0  0  0  0  0  0  0  0  0  0  0  0
   -1.9496   -3.7447   -0.0000 N   0  0  0  0  0  0  0  0  0  0  0  0
   -3.4356   -3.7328   -0.0000 C   0  0  0  0  0  0  0  0  0  0  0  0
   -6.5621    0.7727   -0.0000 C   0  0  0  0  0  0  0  0  0  0  0  0
   -5.2545   -1.4741   -0.0000 C   0  0  0  0  0  0  0  0  0  0  0  0
   -6.5859    2.2825   -0.0000 C   0  0  0  0  0  0  0  0  0  0  0  0
   -7.8579    0.0357   -0.0000 C   0  0  0  0  0  0  0  0  0  0  0  0
   -6.5740   -2.2112   -0.0000 C   0  0  0  0  0  0  0  0  0  0  0  0
   -5.3020    3.0433   -0.0000 C   0  0  0  0  0  0  0  0  0  0  0  0
   -7.9055    3.0314   -0.0000 C   0  0  0  0  0  0  0  0  0  0  0  0
   -7.8698   -1.4503   -0.0000 C   0  0  0  0  0  0  0  0  0  0  0  0
   -5.3258    4.5531   -0.0000 C   0  0  0  0  0  0  0  0  0  0  0  0
   -7.9293    4.5412   -0.0000 C   0  0  0  0  0  0  0  0  0  0  0  0
   -6.6454    5.3139   -0.0000 C   0  0  0  0  0  0  0  0  0  0  0  0
  1  2  2  0
  2  3  1  0
  2  4  1  0
  3  5  1  0
  6  4  1  6
  4  7  1  0
  5  8  1  0
  6  9  1  0
  6 10  1  0
  7 11  1  0
  9 12  1  0
 10 13  1  0
 11 14  1  0
 11 15  2  0
 14 16  1  0
 14 17  2  0
 15 18  1  0
 16 19  2  0
 16 20  1  0
 17 21  1  0
 19 22  1  0
 20 23  2  0
 22 24  2  0
 12 13  1  0
 18 21  2  0
 23 24  1  0
M  END
>  <MolRegNo>  (1) 
489609

>  <m>  (1) 
=

>  <Value>  (1) 
1210

>  <Unit>  (1) 
nM

>  <Type>  (1) 
IC50

>  <pValue>  (1) 
5.92

>  <Ligand Efficiency>  (1) 
0

>  <Binding Efficiency>  (1) 
0

>  <Surface Efficiency>  (1) 
0

>  <Assay Index>  (1) 
339261

>  <Assay Category>  (1) 


>  <Assay Organism>  (1) 


>  <Target ID>  (1) 
11365

>  <Target Name>  (1) 
Cytochrome P450 2D6

>  <Target Organism>  (1) 
Homo sapiens

>  <Target Description>  (1) 
Target is a single protein chain

>  <Sequence Accession>  (1) 
P10635

>  <Reference>  (1) 
Bioorg Med Chem Lett 18 (15), 4355-4359 (2008)

>  <Pubmed ID>  (1) 
18621528

>  <DOI>  (1) 
10.1016/j.bmcl.2008.06.071

$$$$
