4wnv_ligand_218
     RDKit          2D

 32 35  0  0  1  0  0  0  0  0999 V2000
    0.0000   -0.0000   -0.0000 O   0  0  0  0  0  0  0  0  0  0  0  0
    0.7385    1.3102   -0.0000 C   0  0  0  0  0  0  0  0  0  0  0  0
   -0.0238    2.6203   -0.0000 O   0  0  0  0  0  0  0  0  0  0  0  0
    2.2273    1.3221   -0.0000 N   0  0  0  0  0  0  0  0  0  0  0  0
    0.7146    3.9305   -0.0000 C   0  0  0  0  0  0  0  0  0  0  0  0
    2.9657    2.6322   -0.0000 C   0  0  0  0  0  0  0  0  0  0  0  0
    4.4427    2.6442   -0.0000 C   0  0  0  0  0  0  0  0  0  0  0  0
    2.2035    3.9424   -0.0000 C   0  0  0  0  0  0  0  0  0  0  0  0
    5.1692    3.9424   -0.0000 C   0  0  0  0  0  0  0  0  0  0  0  0
    2.9419    5.2526   -0.0000 C   0  0  0  0  0  0  0  0  0  0  0  0
    4.4069    5.2526   -0.0000 C   0  0  0  0  0  0  0  0  0  0  0  0
    6.6223    4.2640   -0.0000 C   0  0  0  0  0  0  0  0  0  0  0  0
    5.3955    6.3841   -0.0000 O   0  0  0  0  0  0  0  0  0  0  0  0
    6.7652    5.7647   -0.0000 C   0  0  0  0  0  0  0  0  0  0  0  0
    8.0516    6.5270   -0.0000 C   0  0  0  0  0  0  0  0  0  0  0  0
    8.0397    8.0397   -0.0000 O   0  0  0  0  0  0  0  0  0  0  0  0
    9.3379    5.7886   -0.0000 N   0  0  0  0  0  0  0  0  0  0  0  0
   10.6243    6.5508   -0.0000 C   0  0  0  0  0  0  0  0  0  0  0  0
    9.3260    4.2997   -0.0000 C   0  0  0  0  0  0  0  0  0  0  0  0
   10.6124    8.0635   -0.0000 C   0  0  0  0  0  0  0  0  0  0  0  0
   11.9106    5.8124   -0.0000 C   0  0  0  0  0  0  0  0  0  0  0  0
    9.3022    8.8258   -0.0000 C   0  0  0  0  0  0  0  0  0  0  0  0
   11.9106    8.8258   -0.0000 C   0  0  0  0  0  0  0  0  0  0  0  0
   13.1970    6.5747   -0.0000 N   0  0  0  0  0  0  0  0  0  0  0  0
    9.2903   10.3384   -0.0000 C   0  0  0  0  0  0  0  0  0  0  0  0
   11.8987   10.3503   -0.0000 C   0  0  0  0  0  0  0  0  0  0  0  0
   14.5548    5.9791   -0.0000 C   0  0  0  0  0  0  0  0  0  0  0  0
   13.3399    8.0873   -0.0000 C   0  0  0  0  0  0  0  0  0  0  0  0
   10.5766   11.1007   -0.0000 C   0  0  0  0  0  0  0  0  0  0  0  0
   15.5434    7.1106   -0.0000 C   0  0  0  0  0  0  0  0  0  0  0  0
   14.7930    8.4089   -0.0000 C   0  0  0  0  0  0  0  0  0  0  0  0
   17.0203    6.9677   -0.0000 O   0  0  0  0  0  0  0  0  0  0  0  0
  1  2  2  0
  2  3  1  0
  2  4  1  0
  3  5  1  0
  4  6  1  0
  6  7  2  0
  6  8  1  0
  7  9  1  0
  8 10  2  0
  9 11  2  0
  9 12  1  0
 11 13  1  0
 12 14  1  0
 14 15  1  6
 15 16  2  0
 15 17  1  0
 18 17  1  0
 17 19  1  0
 18 20  1  0
 18 21  1  1
 20 22  2  0
 20 23  1  0
 21 24  1  0
 22 25  1  0
 23 26  2  0
 24 27  1  0
 24 28  1  0
 25 29  2  0
 27 30  1  0
 28 31  1  0
 30 32  1  6
 10 11  1  0
 13 14  1  0
 26 29  1  0
 30 31  1  0
M  END
>  <MolRegNo>  (1) 
332136

>  <m>  (1) 
=

>  <Value>  (1) 
4800

>  <Unit>  (1) 
nM

>  <Type>  (1) 
IC50

>  <pValue>  (1) 
5.32

>  <Ligand Efficiency>  (1) 
0

>  <Binding Efficiency>  (1) 
0

>  <Surface Efficiency>  (1) 
0

>  <Assay Index>  (1) 
253815

>  <Assay Category>  (1) 


>  <Assay Organism>  (1) 
Homo sapiens

>  <Target ID>  (1) 
11365

>  <Target Name>  (1) 
Cytochrome P450 2D6

>  <Target Organism>  (1) 
Homo sapiens

>  <Target Description>  (1) 
Target is a single protein chain

>  <Sequence Accession>  (1) 
P10635

>  <Reference>  (1) 
Bioorg Med Chem Lett 15 (23), 5114-5119 (2005)

>  <Pubmed ID>  (1) 
16203140

>  <DOI>  (1) 
10.1016/j.bmcl.2005.08.094

$$$$
