4wnv_ligand_918
     RDKit          2D

 28 30  0  0  0  0  0  0  0  0999 V2000
    0.0000   -0.0000   -0.0000 Cl  0  0  0  0  0  0  0  0  0  0  0  0
   -0.0119    1.5118   -0.0000 C   0  0  0  0  0  0  0  0  0  0  0  0
   -1.3213    2.2736   -0.0000 C   0  0  0  0  0  0  0  0  0  0  0  0
    1.2856    2.2736   -0.0000 C   0  0  0  0  0  0  0  0  0  0  0  0
   -2.6307    1.5356   -0.0000 C   0  0  0  0  0  0  0  0  0  0  0  0
   -1.3332    3.7973   -0.0000 C   0  0  0  0  0  0  0  0  0  0  0  0
    1.2737    3.7973   -0.0000 C   0  0  0  0  0  0  0  0  0  0  0  0
   -3.9401    0.7975   -0.0000 N   0  0  0  0  0  0  0  0  0  0  0  0
   -0.0476    4.5591   -0.0000 C   0  0  0  0  0  0  0  0  0  0  0  0
    2.5593    4.5591   -0.0000 N   0  0  0  0  0  0  0  0  0  0  0  0
    3.8449    3.8211   -0.0000 C   0  0  0  0  0  0  0  0  0  0  0  0
    2.5474    6.0708   -0.0000 C   0  0  0  0  0  0  0  0  0  0  0  0
    3.9996    2.3331   -0.0000 C   0  0  0  0  0  0  0  0  0  0  0  0
    5.2138    4.4400   -0.0000 C   0  0  0  0  0  0  0  0  0  0  0  0
    3.8330    6.8327   -0.0000 C   0  0  0  0  0  0  0  0  0  0  0  0
    5.4519    2.0355   -0.0000 N   0  0  0  0  0  0  0  0  0  0  0  0
    6.2137    3.3449   -0.0000 C   0  0  0  0  0  0  0  0  0  0  0  0
    3.8092    8.3325   -0.0000 C   0  0  0  0  0  0  0  0  0  0  0  0
    5.1186    6.0947   -0.0000 C   0  0  0  0  0  0  0  0  0  0  0  0
    6.0470    0.6785   -0.0000 C   0  0  0  0  0  0  0  0  0  0  0  0
    5.0828    9.1063   -0.0000 C   0  0  0  0  0  0  0  0  0  0  0  0
    2.4879    9.0825   -0.0000 C   0  0  0  0  0  0  0  0  0  0  0  0
    6.4041    6.8565   -0.0000 C   0  0  0  0  0  0  0  0  0  0  0  0
    5.1543   -0.5238   -0.0000 O   0  0  0  0  0  0  0  0  0  0  0  0
    7.5350    0.5357   -0.0000 O   0  0  0  0  0  0  0  0  0  0  0  0
    6.3803    8.3682   -0.0000 C   0  0  0  0  0  0  0  0  0  0  0  0
    7.6897    6.1185   -0.0000 F   0  0  0  0  0  0  0  0  0  0  0  0
    8.1421   -0.8213   -0.0000 C   0  0  0  0  0  0  0  0  0  0  0  0
  1  2  1  0
  2  3  2  0
  2  4  1  0
  3  5  1  0
  3  6  1  0
  4  7  2  0
  5  8  3  0
  6  9  2  0
  7 10  1  0
 11 10  1  1
 10 12  1  0
 11 13  1  0
 11 14  1  0
 12 15  1  0
 13 16  1  0
 14 17  1  0
 15 18  2  0
 15 19  1  0
 16 20  1  0
 18 21  1  0
 18 22  1  0
 19 23  2  0
 20 24  2  0
 20 25  1  0
 21 26  2  0
 23 27  1  0
 25 28  1  0
  7  9  1  0
 16 17  1  0
 23 26  1  0
M  END
>  <MolRegNo>  (1) 
590225

>  <m>  (1) 
=

>  <Value>  (1) 
28000

>  <Unit>  (1) 
nM

>  <Type>  (1) 
IC50

>  <pValue>  (1) 
4.55

>  <Ligand Efficiency>  (1) 
0

>  <Binding Efficiency>  (1) 
0

>  <Surface Efficiency>  (1) 
0

>  <Assay Index>  (1) 
452357

>  <Assay Category>  (1) 


>  <Assay Organism>  (1) 


>  <Target ID>  (1) 
11365

>  <Target Name>  (1) 
Cytochrome P450 2D6

>  <Target Organism>  (1) 
Homo sapiens

>  <Target Description>  (1) 
Target is a single protein chain

>  <Sequence Accession>  (1) 
P10635

>  <Reference>  (1) 
Bioorg Med Chem Lett 20 (1), 371-374 (2010)

>  <Pubmed ID>  (1) 
19926282

>  <DOI>  (1) 
10.1016/j.bmcl.2009.10.092

$$$$
