4wnv_ligand_223
     RDKit          2D

 32 35  0  0  1  0  0  0  0  0999 V2000
    0.0000   -0.0000   -0.0000 S   0  0  0  0  0  0  0  0  0  0  0  0
    1.2857   -0.7381   -0.0000 O   0  0  0  0  0  0  0  0  0  0  0  0
   -1.3096    0.7738   -0.0000 O   0  0  0  0  0  0  0  0  0  0  0  0
   -0.7738   -1.2857   -0.0000 N   0  0  0  0  0  0  0  0  0  0  0  0
    0.7381    1.3096   -0.0000 C   0  0  0  0  0  0  0  0  0  0  0  0
   -2.2858   -1.2619   -0.0000 C   0  0  0  0  0  0  0  0  0  0  0  0
    2.2143    1.3215   -0.0000 C   0  0  0  0  0  0  0  0  0  0  0  0
   -0.0238    2.6191   -0.0000 C   0  0  0  0  0  0  0  0  0  0  0  0
    2.9406    2.6191   -0.0000 C   0  0  0  0  0  0  0  0  0  0  0  0
    0.7143    3.9287   -0.0000 C   0  0  0  0  0  0  0  0  0  0  0  0
    2.1786    3.9287   -0.0000 C   0  0  0  0  0  0  0  0  0  0  0  0
    4.3930    2.9406   -0.0000 C   0  0  0  0  0  0  0  0  0  0  0  0
    3.1667    5.0597   -0.0000 O   0  0  0  0  0  0  0  0  0  0  0  0
    4.5358    4.4406   -0.0000 C   0  0  0  0  0  0  0  0  0  0  0  0
    5.8216    5.2025   -0.0000 C   0  0  0  0  0  0  0  0  0  0  0  0
    5.8097    6.7145   -0.0000 O   0  0  0  0  0  0  0  0  0  0  0  0
    7.1073    4.4644   -0.0000 N   0  0  0  0  0  0  0  0  0  0  0  0
    8.3931    5.2263   -0.0000 C   0  0  0  0  0  0  0  0  0  0  0  0
    7.0954    2.9763   -0.0000 C   0  0  0  0  0  0  0  0  0  0  0  0
    8.3812    6.7383   -0.0000 C   0  0  0  0  0  0  0  0  0  0  0  0
    9.6788    4.4882   -0.0000 C   0  0  0  0  0  0  0  0  0  0  0  0
    7.0716    7.5002   -0.0000 C   0  0  0  0  0  0  0  0  0  0  0  0
    9.6788    7.5002   -0.0000 C   0  0  0  0  0  0  0  0  0  0  0  0
   10.9646    5.2501   -0.0000 N   0  0  0  0  0  0  0  0  0  0  0  0
    7.0597    9.0240   -0.0000 C   0  0  0  0  0  0  0  0  0  0  0  0
    9.6669    9.0240   -0.0000 C   0  0  0  0  0  0  0  0  0  0  0  0
   12.3217    4.6549   -0.0000 C   0  0  0  0  0  0  0  0  0  0  0  0
   11.1074    6.7621   -0.0000 C   0  0  0  0  0  0  0  0  0  0  0  0
    8.3455    9.7860   -0.0000 C   0  0  0  0  0  0  0  0  0  0  0  0
   13.3099    5.7859   -0.0000 C   0  0  0  0  0  0  0  0  0  0  0  0
   12.5598    7.0835   -0.0000 C   0  0  0  0  0  0  0  0  0  0  0  0
   14.7861    5.6430   -0.0000 O   0  0  0  0  0  0  0  0  0  0  0  0
  1  2  2  0
  1  3  2  0
  1  4  1  0
  1  5  1  0
  4  6  1  0
  5  7  2  0
  5  8  1  0
  7  9  1  0
  8 10  2  0
  9 11  2  0
  9 12  1  0
 11 13  1  0
 12 14  1  0
 14 15  1  0
 15 16  2  0
 15 17  1  0
 18 17  1  0
 17 19  1  0
 18 20  1  0
 18 21  1  1
 20 22  2  0
 20 23  1  0
 21 24  1  0
 22 25  1  0
 23 26  2  0
 24 27  1  0
 24 28  1  0
 25 29  2  0
 27 30  1  0
 28 31  1  0
 30 32  1  6
 10 11  1  0
 13 14  1  0
 26 29  1  0
 30 31  1  0
M  END
>  <MolRegNo>  (1) 
332069

>  <m>  (1) 
=

>  <Value>  (1) 
11

>  <Unit>  (1) 
nM

>  <Type>  (1) 
IC50

>  <pValue>  (1) 
7.96

>  <Ligand Efficiency>  (1) 
0

>  <Binding Efficiency>  (1) 
0

>  <Surface Efficiency>  (1) 
0

>  <Assay Index>  (1) 
253815

>  <Assay Category>  (1) 


>  <Assay Organism>  (1) 
Homo sapiens

>  <Target ID>  (1) 
11365

>  <Target Name>  (1) 
Cytochrome P450 2D6

>  <Target Organism>  (1) 
Homo sapiens

>  <Target Description>  (1) 
Target is a single protein chain

>  <Sequence Accession>  (1) 
P10635

>  <Reference>  (1) 
Bioorg Med Chem Lett 15 (23), 5114-5119 (2005)

>  <Pubmed ID>  (1) 
16203140

>  <DOI>  (1) 
10.1016/j.bmcl.2005.08.094

$$$$
