4wnv_ligand_1045
     RDKit          2D

 21 24  0  0  0  0  0  0  0  0999 V2000
    0.0000   -0.0000   -0.0000 N   0  0  0  0  0  0  0  0  0  0  0  0
   -0.9070   -1.2015   -0.0000 N   0  0  0  0  0  0  0  0  0  0  0  0
   -0.8953    1.2369   -0.0000 C   0  0  0  0  0  0  0  0  0  0  0  0
   -2.3559   -0.7186   -0.0000 C   0  0  0  0  0  0  0  0  0  0  0  0
   -2.3442    0.7892   -0.0000 C   0  0  0  0  0  0  0  0  0  0  0  0
   -3.6635   -1.4489   -0.0000 C   0  0  0  0  0  0  0  0  0  0  0  0
   -3.6517    1.5431   -0.0000 C   0  0  0  0  0  0  0  0  0  0  0  0
   -4.9710   -0.6832   -0.0000 C   0  0  0  0  0  0  0  0  0  0  0  0
   -4.9475    0.8128   -0.0000 C   0  0  0  0  0  0  0  0  0  0  0  0
   -6.2432    1.5667   -0.0000 N   0  0  0  0  0  0  0  0  0  0  0  0
   -6.2550    3.0745   -0.0000 C   0  0  0  0  0  0  0  0  0  0  0  0
   -7.5390    0.8364   -0.0000 C   0  0  0  0  0  0  0  0  0  0  0  0
   -4.9710    3.8284   -0.0000 C   0  0  0  0  0  0  0  0  0  0  0  0
   -7.5508    3.8402   -0.0000 C   0  0  0  0  0  0  0  0  0  0  0  0
   -8.8348    1.5903   -0.0000 C   0  0  0  0  0  0  0  0  0  0  0  0
   -3.6988    3.0863   -0.0000 C   0  0  0  0  0  0  0  0  0  0  0  0
   -4.9828    5.3244   -0.0000 C   0  0  0  0  0  0  0  0  0  0  0  0
   -8.8465    3.0981   -0.0000 N   0  0  0  0  0  0  0  0  0  0  0  0
   -2.4148    3.8402   -0.0000 C   0  0  0  0  0  0  0  0  0  0  0  0
   -3.6988    6.0783   -0.0000 C   0  0  0  0  0  0  0  0  0  0  0  0
   -2.4266    5.3480   -0.0000 C   0  0  0  0  0  0  0  0  0  0  0  0
  1  2  1  0
  1  3  2  0
  2  4  1  0
  3  5  1  0
  4  6  2  0
  5  7  2  0
  6  8  1  0
  7  9  1  0
  9 10  1  0
 10 11  1  0
 10 12  1  0
 11 13  1  0
 11 14  1  0
 12 15  1  0
 13 16  2  0
 13 17  1  0
 14 18  1  0
 16 19  1  0
 17 20  2  0
 19 21  2  0
  4  5  1  0
  8  9  2  0
 15 18  1  0
 20 21  1  0
M  END
>  <MolRegNo>  (1) 
648315

>  <m>  (1) 
=

>  <Value>  (1) 
300

>  <Unit>  (1) 
nM

>  <Type>  (1) 
IC50

>  <pValue>  (1) 
6.52

>  <Ligand Efficiency>  (1) 
0

>  <Binding Efficiency>  (1) 
0

>  <Surface Efficiency>  (1) 
0

>  <Assay Index>  (1) 
485181

>  <Assay Category>  (1) 


>  <Assay Organism>  (1) 


>  <Target ID>  (1) 
11365

>  <Target Name>  (1) 
Cytochrome P450 2D6

>  <Target Organism>  (1) 
Homo sapiens

>  <Target Description>  (1) 
Target is a single protein chain

>  <Sequence Accession>  (1) 
P10635

>  <Reference>  (1) 
Bioorg Med Chem Lett 20 (13), 3941-3945 (2010)

>  <Pubmed ID>  (1) 
20570146

>  <DOI>  (1) 
10.1016/j.bmcl.2010.05.008

$$$$
