4wnv_ligand_813
     RDKit          2D

 41 45  0  0  0  0  0  0  0  0999 V2000
    0.0000   -0.0000   -0.0000 S   0  0  0  0  0  0  0  0  0  0  0  0
    0.2958   -1.4553   -0.0000 C   0  0  0  0  0  0  0  0  0  0  0  0
    1.2897    0.7572   -0.0000 C   0  0  0  0  0  0  0  0  0  0  0  0
    1.7748   -1.5973   -0.0000 N   0  0  0  0  0  0  0  0  0  0  0  0
   -0.7217   -2.5557   -0.0000 C   0  0  0  0  0  0  0  0  0  0  0  0
    2.3901   -0.2366   -0.0000 C   0  0  0  0  0  0  0  0  0  0  0  0
   -2.2007   -2.2362   -0.0000 C   0  0  0  0  0  0  0  0  0  0  0  0
   -0.2721   -3.9755   -0.0000 C   0  0  0  0  0  0  0  0  0  0  0  0
   -3.2183   -3.3366   -0.0000 C   0  0  0  0  0  0  0  0  0  0  0  0
   -1.2897   -5.0759   -0.0000 C   0  0  0  0  0  0  0  0  0  0  0  0
   -2.7687   -4.7565   -0.0000 C   0  0  0  0  0  0  0  0  0  0  0  0
   -3.7862   -5.8568   -0.0000 C   0  0  0  0  0  0  0  0  0  0  0  0
   -3.3366   -7.2767   -0.0000 N   0  0  0  0  0  0  0  0  0  0  0  0
   -1.9168   -7.7263   -0.0000 C   0  0  0  0  0  0  0  0  0  0  0  0
   -4.2358   -8.4835   -0.0000 C   0  0  0  0  0  0  0  0  0  0  0  0
   -1.9286   -9.2171   -0.0000 C   0  0  0  0  0  0  0  0  0  0  0  0
   -0.6271   -6.9690   -0.0000 C   0  0  0  0  0  0  0  0  0  0  0  0
   -3.3603   -9.6904   -0.0000 C   0  0  0  0  0  0  0  0  0  0  0  0
   -5.7503   -8.4717   -0.0000 C   0  0  0  0  0  0  0  0  0  0  0  0
   -0.6389   -9.9507   -0.0000 C   0  0  0  0  0  0  0  0  0  0  0  0
    0.6626   -7.7026   -0.0000 C   0  0  0  0  0  0  0  0  0  0  0  0
   -3.8336  -11.1102   -0.0000 S   0  0  0  0  0  0  0  0  0  0  0  0
   -6.5076   -7.1583   -0.0000 C   0  0  0  0  0  0  0  0  0  0  0  0
    0.6508   -9.1934   -0.0000 C   0  0  0  0  0  0  0  0  0  0  0  0
   -5.3126  -11.4060   -0.0000 C   0  0  0  0  0  0  0  0  0  0  0  0
   -7.8209   -7.8919   -0.0000 C   0  0  0  0  0  0  0  0  0  0  0  0
   -5.2179   -6.3893   -0.0000 C   0  0  0  0  0  0  0  0  0  0  0  0
   -7.2767   -5.8450   -0.0000 C   0  0  0  0  0  0  0  0  0  0  0  0
    1.9404   -9.9270   -0.0000 O   0  0  0  0  0  0  0  0  0  0  0  0
   -5.6320   -9.9270   -0.0000 C   0  0  0  0  0  0  0  0  0  0  0  0
   -5.0168  -12.8613   -0.0000 C   0  0  0  0  0  0  0  0  0  0  0  0
   -6.7915  -11.7018   -0.0000 C   0  0  0  0  0  0  0  0  0  0  0  0
   -7.8328   -9.3827   -0.0000 O   0  0  0  0  0  0  0  0  0  0  0  0
   -9.1343   -7.1347   -0.0000 O   0  0  0  0  0  0  0  0  0  0  0  0
    3.2301   -9.1698   -0.0000 C   0  0  0  0  0  0  0  0  0  0  0  0
    3.2183   -7.6553   -0.0000 C   0  0  0  0  0  0  0  0  0  0  0  0
    4.5080   -6.8980   -0.0000 N   0  0  0  0  0  0  0  0  0  0  0  0
    1.9049   -6.8980   -0.0000 C   0  0  0  0  0  0  0  0  0  0  0  0
    4.4961   -5.3835   -0.0000 C   0  0  0  0  0  0  0  0  0  0  0  0
    1.8931   -5.3835   -0.0000 C   0  0  0  0  0  0  0  0  0  0  0  0
    3.1828   -4.6145   -0.0000 C   0  0  0  0  0  0  0  0  0  0  0  0
  1  2  1  0
  1  3  1  0
  2  4  2  0
  2  5  1  0
  3  6  2  0
  5  7  2  0
  5  8  1  0
  7  9  1  0
  8 10  2  0
  9 11  2  0
 11 12  1  0
 12 13  1  0
 13 14  1  0
 13 15  1  0
 14 16  2  0
 14 17  1  0
 15 18  2  0
 15 19  1  0
 16 20  1  0
 17 21  2  0
 18 22  1  0
 19 23  1  0
 20 24  2  0
 22 25  1  0
 23 26  1  0
 23 27  1  0
 23 28  1  0
 24 29  1  0
 25 30  1  0
 25 31  1  0
 25 32  1  0
 26 33  2  0
 26 34  1  0
 29 35  1  0
 35 36  1  0
 36 37  2  0
 36 38  1  0
 37 39  1  0
 38 40  2  0
 39 41  2  0
  4  6  1  0
 10 11  1  0
 16 18  1  0
 21 24  1  0
 40 41  1  0
M  END
>  <MolRegNo>  (1) 
555651

>  <m>  (1) 
=

>  <Value>  (1) 
4

>  <Unit>  (1) 
nM

>  <Type>  (1) 
IC50

>  <pValue>  (1) 
8.4

>  <Ligand Efficiency>  (1) 
0

>  <Binding Efficiency>  (1) 
0

>  <Surface Efficiency>  (1) 
0

>  <Assay Index>  (1) 
428886

>  <Assay Category>  (1) 


>  <Assay Organism>  (1) 


>  <Target ID>  (1) 
11365

>  <Target Name>  (1) 
Cytochrome P450 2D6

>  <Target Organism>  (1) 
Homo sapiens

>  <Target Description>  (1) 
Target is a single protein chain

>  <Sequence Accession>  (1) 
P10635

>  <Reference>  (1) 
J Med Chem 52 (19), 5803-5815 (2009)

>  <Pubmed ID>  (1) 
19739647

>  <DOI>  (1) 
10.1021/jm900945d

$$$$
