4wnv_ligand_216
     RDKit          2D

 31 34  0  0  1  0  0  0  0  0999 V2000
    0.0000   -0.0000   -0.0000 O   0  0  0  0  0  0  0  0  0  0  0  0
   -0.0119   -1.4882   -0.0000 C   0  0  0  0  0  0  0  0  0  0  0  0
    1.2739   -2.2263   -0.0000 N   0  0  0  0  0  0  0  0  0  0  0  0
   -1.3215   -2.2263   -0.0000 C   0  0  0  0  0  0  0  0  0  0  0  0
    2.5597   -1.4644   -0.0000 C   0  0  0  0  0  0  0  0  0  0  0  0
    1.2620   -3.7146   -0.0000 C   0  0  0  0  0  0  0  0  0  0  0  0
   -2.7026   -1.5954   -0.0000 O   0  0  0  0  0  0  0  0  0  0  0  0
   -1.4882   -3.7026   -0.0000 C   0  0  0  0  0  0  0  0  0  0  0  0
    2.5478    0.0476   -0.0000 C   0  0  0  0  0  0  0  0  0  0  0  0
    3.8455   -2.2025   -0.0000 C   0  0  0  0  0  0  0  0  0  0  0  0
   -3.7146   -2.7026   -0.0000 C   0  0  0  0  0  0  0  0  0  0  0  0
   -2.9645   -4.0003   -0.0000 C   0  0  0  0  0  0  0  0  0  0  0  0
    1.2382    0.8096   -0.0000 C   0  0  0  0  0  0  0  0  0  0  0  0
    3.8455    0.8096   -0.0000 C   0  0  0  0  0  0  0  0  0  0  0  0
    5.1313   -1.4406   -0.0000 N   0  0  0  0  0  0  0  0  0  0  0  0
   -5.2147   -2.6907   -0.0000 C   0  0  0  0  0  0  0  0  0  0  0  0
   -3.7146   -5.2742   -0.0000 C   0  0  0  0  0  0  0  0  0  0  0  0
    1.2263    2.3335   -0.0000 C   0  0  0  0  0  0  0  0  0  0  0  0
    3.8336    2.3335   -0.0000 C   0  0  0  0  0  0  0  0  0  0  0  0
    6.4886   -2.0359   -0.0000 C   0  0  0  0  0  0  0  0  0  0  0  0
    5.2742    0.0714   -0.0000 C   0  0  0  0  0  0  0  0  0  0  0  0
   -5.9766   -3.9765   -0.0000 C   0  0  0  0  0  0  0  0  0  0  0  0
   -5.2147   -5.2623   -0.0000 C   0  0  0  0  0  0  0  0  0  0  0  0
    2.5121    3.0955   -0.0000 C   0  0  0  0  0  0  0  0  0  0  0  0
    7.4767   -0.9048   -0.0000 C   0  0  0  0  0  0  0  0  0  0  0  0
    6.7267    0.3929   -0.0000 C   0  0  0  0  0  0  0  0  0  0  0  0
   -5.9766   -6.5481   -0.0000 N   0  0  0  0  0  0  0  0  0  0  0  0
    8.9530   -1.0477   -0.0000 O   0  0  0  0  0  0  0  0  0  0  0  0
   -7.4886   -6.5362   -0.0000 C   0  0  0  0  0  0  0  0  0  0  0  0
   -8.2506   -7.8220   -0.0000 O   0  0  0  0  0  0  0  0  0  0  0  0
   -8.2506   -5.2266   -0.0000 C   0  0  0  0  0  0  0  0  0  0  0  0
  1  2  2  0
  2  3  1  0
  2  4  1  0
  5  3  1  0
  3  6  1  0
  4  7  1  0
  4  8  1  0
  5  9  1  0
  5 10  1  1
  7 11  1  0
  8 12  1  0
  9 13  2  0
  9 14  1  0
 10 15  1  0
 11 16  2  0
 12 17  2  0
 13 18  1  0
 14 19  2  0
 15 20  1  0
 15 21  1  0
 16 22  1  0
 17 23  1  0
 18 24  2  0
 20 25  1  0
 21 26  1  0
 23 27  1  0
 25 28  1  6
 27 29  1  0
 29 30  2  0
 29 31  1  0
 11 12  1  0
 19 24  1  0
 22 23  2  0
 25 26  1  0
M  END
>  <MolRegNo>  (1) 
331948

>  <m>  (1) 
=

>  <Value>  (1) 
770

>  <Unit>  (1) 
nM

>  <Type>  (1) 
IC50

>  <pValue>  (1) 
6.11

>  <Ligand Efficiency>  (1) 
0

>  <Binding Efficiency>  (1) 
0

>  <Surface Efficiency>  (1) 
0

>  <Assay Index>  (1) 
253815

>  <Assay Category>  (1) 


>  <Assay Organism>  (1) 
Homo sapiens

>  <Target ID>  (1) 
11365

>  <Target Name>  (1) 
Cytochrome P450 2D6

>  <Target Organism>  (1) 
Homo sapiens

>  <Target Description>  (1) 
Target is a single protein chain

>  <Sequence Accession>  (1) 
P10635

>  <Reference>  (1) 
Bioorg Med Chem Lett 15 (23), 5114-5119 (2005)

>  <Pubmed ID>  (1) 
16203140

>  <DOI>  (1) 
10.1016/j.bmcl.2005.08.094

$$$$
