4wnv_ligand_476
     RDKit          2D

 32 35  0  0  0  0  0  0  0  0999 V2000
    0.0000   -0.0000   -0.0000 O   0  0  0  0  0  0  0  0  0  0  0  0
   -0.0119    1.5104   -0.0000 C   0  0  0  0  0  0  0  0  0  0  0  0
   -1.3201    2.2716   -0.0000 N   0  0  0  0  0  0  0  0  0  0  0  0
    1.2726    2.2716   -0.0000 C   0  0  0  0  0  0  0  0  0  0  0  0
   -2.6284    1.5342   -0.0000 C   0  0  0  0  0  0  0  0  0  0  0  0
    2.5570    1.5342   -0.0000 O   0  0  0  0  0  0  0  0  0  0  0  0
   -2.6403    0.0357   -0.0000 N   0  0  0  0  0  0  0  0  0  0  0  0
   -3.9366    2.2954   -0.0000 C   0  0  0  0  0  0  0  0  0  0  0  0
    3.8414    2.2954   -0.0000 C   0  0  0  0  0  0  0  0  0  0  0  0
   -3.9604   -0.7017   -0.0000 C   0  0  0  0  0  0  0  0  0  0  0  0
   -5.2448    1.5580   -0.0000 C   0  0  0  0  0  0  0  0  0  0  0  0
    5.1259    1.5580   -0.0000 C   0  0  0  0  0  0  0  0  0  0  0  0
    3.8177    3.8058   -0.0000 C   0  0  0  0  0  0  0  0  0  0  0  0
   -5.2686    0.0595   -0.0000 N   0  0  0  0  0  0  0  0  0  0  0  0
   -3.9604   -2.1883   -0.0000 C   0  0  0  0  0  0  0  0  0  0  0  0
   -6.5531    2.3191   -0.0000 N   0  0  0  0  0  0  0  0  0  0  0  0
    6.4103    2.3191   -0.0000 C   0  0  0  0  0  0  0  0  0  0  0  0
    5.0902    4.5788   -0.0000 C   0  0  0  0  0  0  0  0  0  0  0  0
   -2.7592   -3.0565   -0.0000 O   0  0  0  0  0  0  0  0  0  0  0  0
   -5.1854   -3.0565   -0.0000 C   0  0  0  0  0  0  0  0  0  0  0  0
   -6.7196    3.8296   -0.0000 N   0  0  0  0  0  0  0  0  0  0  0  0
   -7.9327    1.7245   -0.0000 C   0  0  0  0  0  0  0  0  0  0  0  0
    6.3985    3.8296   -0.0000 N   0  0  0  0  0  0  0  0  0  0  0  0
    7.6948    1.5818   -0.0000 C   0  0  0  0  0  0  0  0  0  0  0  0
    5.0664    6.0892   -0.0000 C   0  0  0  0  0  0  0  0  0  0  0  0
   -3.2349   -4.4718   -0.0000 C   0  0  0  0  0  0  0  0  0  0  0  0
   -4.7334   -4.4718   -0.0000 C   0  0  0  0  0  0  0  0  0  0  0  0
   -8.1943    4.1507   -0.0000 C   0  0  0  0  0  0  0  0  0  0  0  0
   -8.9436    2.8543   -0.0000 C   0  0  0  0  0  0  0  0  0  0  0  0
   -8.2538    0.2735   -0.0000 C   0  0  0  0  0  0  0  0  0  0  0  0
   -2.3667   -5.6730   -0.0000 C   0  0  0  0  0  0  0  0  0  0  0  0
   -8.8127    5.5303   -0.0000 C   0  0  0  0  0  0  0  0  0  0  0  0
  1  2  2  0
  2  3  1  0
  2  4  1  0
  3  5  1  0
  4  6  1  0
  5  7  2  0
  5  8  1  0
  6  9  1  0
  7 10  1  0
  8 11  2  0
  9 12  2  0
  9 13  1  0
 10 14  2  0
 10 15  1  0
 11 16  1  0
 12 17  1  0
 13 18  2  0
 15 19  1  0
 15 20  2  0
 16 21  1  0
 16 22  1  0
 17 23  2  0
 17 24  1  0
 18 25  1  0
 19 26  1  0
 20 27  1  0
 21 28  2  0
 22 29  2  0
 22 30  1  0
 26 31  1  0
 28 32  1  0
 11 14  1  0
 18 23  1  0
 26 27  2  0
 28 29  1  0
M  END
>  <MolRegNo>  (1) 
424907

>  <m>  (1) 
=

>  <Value>  (1) 
50

>  <Unit>  (1) 
nM

>  <Type>  (1) 
IC50

>  <pValue>  (1) 
7.3

>  <Ligand Efficiency>  (1) 
0

>  <Binding Efficiency>  (1) 
0

>  <Surface Efficiency>  (1) 
0

>  <Assay Index>  (1) 
311929

>  <Assay Category>  (1) 


>  <Assay Organism>  (1) 


>  <Target ID>  (1) 
11365

>  <Target Name>  (1) 
Cytochrome P450 2D6

>  <Target Organism>  (1) 
Homo sapiens

>  <Target Description>  (1) 
Target is a single protein chain

>  <Sequence Accession>  (1) 
P10635

>  <Reference>  (1) 
Bioorg Med Chem Lett 18 (6), 1778-1783 (2008)

>  <Pubmed ID>  (1) 
18329269

>  <DOI>  (1) 
10.1016/j.bmcl.2008.02.032

$$$$
