4wnv_ligand_863
     RDKit          2D

 32 36  0  0  0  0  0  0  0  0999 V2000
    0.0000   -0.0000   -0.0000 F   0  0  0  0  0  0  0  0  0  0  0  0
   -1.0114    1.1173   -0.0000 C   0  0  0  0  0  0  0  0  0  0  0  0
   -0.5645    2.5521   -0.0000 C   0  0  0  0  0  0  0  0  0  0  0  0
   -2.4815    0.8233   -0.0000 C   0  0  0  0  0  0  0  0  0  0  0  0
   -1.5759    3.6694   -0.0000 C   0  0  0  0  0  0  0  0  0  0  0  0
   -3.4929    1.9405   -0.0000 C   0  0  0  0  0  0  0  0  0  0  0  0
   -3.0460    3.3753   -0.0000 C   0  0  0  0  0  0  0  0  0  0  0  0
   -4.0575    4.4926   -0.0000 C   0  0  0  0  0  0  0  0  0  0  0  0
   -3.6105    5.9274   -0.0000 N   0  0  0  0  0  0  0  0  0  0  0  0
   -4.5044    7.1505   -0.0000 C   0  0  0  0  0  0  0  0  0  0  0  0
   -2.1993    6.3978   -0.0000 C   0  0  0  0  0  0  0  0  0  0  0  0
   -3.6341    8.3737   -0.0000 N   0  0  0  0  0  0  0  0  0  0  0  0
   -6.0097    7.1623   -0.0000 N   0  0  0  0  0  0  0  0  0  0  0  0
   -2.2110    7.9032   -0.0000 C   0  0  0  0  0  0  0  0  0  0  0  0
   -0.9173    5.6569   -0.0000 C   0  0  0  0  0  0  0  0  0  0  0  0
   -6.7624    5.8804   -0.0000 C   0  0  0  0  0  0  0  0  0  0  0  0
   -6.7624    8.4677   -0.0000 C   0  0  0  0  0  0  0  0  0  0  0  0
   -0.9291    8.6677   -0.0000 C   0  0  0  0  0  0  0  0  0  0  0  0
    0.3646    6.4214   -0.0000 C   0  0  0  0  0  0  0  0  0  0  0  0
   -8.2678    5.8921   -0.0000 C   0  0  0  0  0  0  0  0  0  0  0  0
   -8.2678    8.4795   -0.0000 C   0  0  0  0  0  0  0  0  0  0  0  0
    0.3528    7.9267   -0.0000 C   0  0  0  0  0  0  0  0  0  0  0  0
   -9.0205    7.1976   -0.0000 C   0  0  0  0  0  0  0  0  0  0  0  0
  -10.5259    7.2093   -0.0000 N   0  0  0  0  0  0  0  0  0  0  0  0
  -11.2786    5.9274   -0.0000 C   0  0  0  0  0  0  0  0  0  0  0  0
  -11.2786    8.5148   -0.0000 C   0  0  0  0  0  0  0  0  0  0  0  0
  -12.7839    5.9392   -0.0000 C   0  0  0  0  0  0  0  0  0  0  0  0
  -13.5366    4.6573   -0.0000 C   0  0  0  0  0  0  0  0  0  0  0  0
  -13.5366    7.2446   -0.0000 C   0  0  0  0  0  0  0  0  0  0  0  0
  -15.0420    4.6690   -0.0000 C   0  0  0  0  0  0  0  0  0  0  0  0
  -15.0420    7.2564   -0.0000 C   0  0  0  0  0  0  0  0  0  0  0  0
  -15.7947    5.9745   -0.0000 C   0  0  0  0  0  0  0  0  0  0  0  0
  1  2  1  0
  2  3  2  0
  2  4  1  0
  3  5  1  0
  4  6  2  0
  5  7  2  0
  7  8  1  0
  8  9  1  0
  9 10  1  0
  9 11  1  0
 10 12  2  0
 10 13  1  0
 11 14  2  0
 11 15  1  0
 13 16  1  0
 13 17  1  0
 14 18  1  0
 15 19  2  0
 16 20  1  0
 17 21  1  0
 18 22  2  0
 20 23  1  0
 23 24  1  0
 24 25  1  0
 24 26  1  0
 25 27  1  0
 27 28  1  0
 27 29  1  0
 28 30  1  0
 29 31  1  0
 30 32  1  0
  6  7  1  0
 12 14  1  0
 19 22  1  0
 21 23  1  0
 31 32  1  0
M  END
>  <MolRegNo>  (1) 
561194

>  <m>  (1) 
=

>  <Value>  (1) 
360

>  <Unit>  (1) 
nM

>  <Type>  (1) 
IC50

>  <pValue>  (1) 
6.44

>  <Ligand Efficiency>  (1) 
0

>  <Binding Efficiency>  (1) 
0

>  <Surface Efficiency>  (1) 
0

>  <Assay Index>  (1) 
429822

>  <Assay Category>  (1) 


>  <Assay Organism>  (1) 


>  <Target ID>  (1) 
11365

>  <Target Name>  (1) 
Cytochrome P450 2D6

>  <Target Organism>  (1) 
Homo sapiens

>  <Target Description>  (1) 
Target is a single protein chain

>  <Sequence Accession>  (1) 
P10635

>  <Reference>  (1) 
Bioorg Med Chem Lett 19 (15), 4380-4384 (2009)

>  <Pubmed ID>  (1) 
19553115

>  <DOI>  (1) 
10.1016/j.bmcl.2009.05.086

$$$$
