4wnv_ligand_1013
     RDKit          2D

 24 26  0  0  0  0  0  0  0  0999 V2000
    0.0000   -0.0000   -0.0000 S   0  0  0  0  0  0  0  0  0  0  0  0
   -1.4546   -0.4531   -0.0000 C   0  0  0  0  0  0  0  0  0  0  0  0
    0.8823   -1.2042   -0.0000 C   0  0  0  0  0  0  0  0  0  0  0  0
   -1.4665   -1.9553   -0.0000 C   0  0  0  0  0  0  0  0  0  0  0  0
   -2.7660    0.2981   -0.0000 C   0  0  0  0  0  0  0  0  0  0  0  0
   -0.0119   -2.4203   -0.0000 C   0  0  0  0  0  0  0  0  0  0  0  0
    2.3726   -1.1803   -0.0000 C   0  0  0  0  0  0  0  0  0  0  0  0
   -2.7780   -2.6945   -0.0000 C   0  0  0  0  0  0  0  0  0  0  0  0
   -4.0775   -0.4411   -0.0000 C   0  0  0  0  0  0  0  0  0  0  0  0
    0.4531   -3.8271   -0.0000 C   0  0  0  0  0  0  0  0  0  0  0  0
    3.1118   -2.4680   -0.0000 C   0  0  0  0  0  0  0  0  0  0  0  0
   -4.0894   -1.9315   -0.0000 C   0  0  0  0  0  0  0  0  0  0  0  0
   -0.8584   -4.5663   -0.0000 C   0  0  0  0  0  0  0  0  0  0  0  0
    1.9076   -4.1133   -0.0000 C   0  0  0  0  0  0  0  0  0  0  0  0
    4.6021   -2.4441   -0.0000 N   0  0  0  0  0  0  0  0  0  0  0  0
   -0.8584   -6.0447   -0.0000 C   0  0  0  0  0  0  0  0  0  0  0  0
   -2.1699   -3.8033   -0.0000 C   0  0  0  0  0  0  0  0  0  0  0  0
    5.3413   -3.7318   -0.0000 C   0  0  0  0  0  0  0  0  0  0  0  0
    5.3294   -1.1326   -0.0000 C   0  0  0  0  0  0  0  0  0  0  0  0
    0.4292   -6.7720   -0.0000 O   0  0  0  0  0  0  0  0  0  0  0  0
   -2.1580   -6.7959   -0.0000 N   0  0  0  0  0  0  0  0  0  0  0  0
   -3.4814   -4.5425   -0.0000 C   0  0  0  0  0  0  0  0  0  0  0  0
    0.4292   -8.2623   -0.0000 C   0  0  0  0  0  0  0  0  0  0  0  0
   -3.4814   -6.0447   -0.0000 C   0  0  0  0  0  0  0  0  0  0  0  0
  1  2  1  0
  1  3  1  0
  2  4  2  0
  2  5  1  0
  3  6  2  0
  3  7  1  0
  4  8  1  0
  5  9  2  0
  6 10  1  0
  7 11  1  0
  8 12  2  0
 10 13  1  0
 10 14  1  6
 11 15  1  0
 13 16  2  0
 13 17  1  0
 15 18  1  0
 15 19  1  0
 16 20  1  0
 16 21  1  0
 17 22  2  0
 20 23  1  0
 21 24  2  0
  4  6  1  0
  9 12  1  0
 22 24  1  0
M  END
>  <MolRegNo>  (1) 
620164

>  <m>  (1) 
=

>  <Value>  (1) 
9600

>  <Unit>  (1) 
nM

>  <Type>  (1) 
IC50

>  <pValue>  (1) 
5.02

>  <Ligand Efficiency>  (1) 
0

>  <Binding Efficiency>  (1) 
0

>  <Surface Efficiency>  (1) 
0

>  <Assay Index>  (1) 
469728

>  <Assay Category>  (1) 


>  <Assay Organism>  (1) 


>  <Target ID>  (1) 
11365

>  <Target Name>  (1) 
Cytochrome P450 2D6

>  <Target Organism>  (1) 
Homo sapiens

>  <Target Description>  (1) 
Target is a single protein chain

>  <Sequence Accession>  (1) 
P10635

>  <Reference>  (1) 
Bioorg Med Chem Lett 20 (7), 2316-2320 (2010)

>  <Pubmed ID>  (1) 
20188547

>  <DOI>  (1) 
10.1016/j.bmcl.2010.01.134

$$$$
