4wnv_ligand_851
     RDKit          2D

 32 34  0  0  0  0  0  0  0  0999 V2000
    0.0000   -0.0000   -0.0000 F   0  0  0  0  0  0  0  0  0  0  0  0
   -1.1016    0.6437   -0.0000 C   0  0  0  0  0  0  0  0  0  0  0  0
   -1.1140    2.2281   -0.0000 C   0  0  0  0  0  0  0  0  0  0  0  0
   -2.4756   -0.1238   -0.0000 C   0  0  0  0  0  0  0  0  0  0  0  0
   -0.0371    2.8717   -0.0000 F   0  0  0  0  0  0  0  0  0  0  0  0
   -2.4880    3.0203   -0.0000 C   0  0  0  0  0  0  0  0  0  0  0  0
   -3.8496    0.6684   -0.0000 C   0  0  0  0  0  0  0  0  0  0  0  0
   -3.8620    2.2528   -0.0000 C   0  0  0  0  0  0  0  0  0  0  0  0
   -4.9512    0.0495   -0.0000 F   0  0  0  0  0  0  0  0  0  0  0  0
   -5.2359    3.0574   -0.0000 C   0  0  0  0  0  0  0  0  0  0  0  0
   -5.2483    4.6418   -0.0000 C   0  0  0  0  0  0  0  0  0  0  0  0
   -4.1714    5.2854   -0.0000 N   0  0  0  0  0  0  0  0  0  0  0  0
   -6.6223    5.4464   -0.0000 C   0  0  0  0  0  0  0  0  0  0  0  0
   -6.6347    7.0308   -0.0000 C   0  0  0  0  0  0  0  0  0  0  0  0
   -5.5578    7.6744   -0.0000 O   0  0  0  0  0  0  0  0  0  0  0  0
   -8.0086    7.8353   -0.0000 N   0  0  0  0  0  0  0  0  0  0  0  0
   -8.1695    9.3950   -0.0000 C   0  0  0  0  0  0  0  0  0  0  0  0
   -9.4321    7.1917   -0.0000 C   0  0  0  0  0  0  0  0  0  0  0  0
   -9.7168    9.7292   -0.0000 C   0  0  0  0  0  0  0  0  0  0  0  0
   -7.0060   10.4471   -0.0000 C   0  0  0  0  0  0  0  0  0  0  0  0
  -10.4966    8.3676   -0.0000 C   0  0  0  0  0  0  0  0  0  0  0  0
   -7.3402   11.9944   -0.0000 O   0  0  0  0  0  0  0  0  0  0  0  0
   -6.1767   13.0465   -0.0000 C   0  0  0  0  0  0  0  0  0  0  0  0
   -4.7037   12.5638   -0.0000 N   0  0  0  0  0  0  0  0  0  0  0  0
   -6.4985   14.5938   -0.0000 C   0  0  0  0  0  0  0  0  0  0  0  0
   -3.5401   13.6159   -0.0000 C   0  0  0  0  0  0  0  0  0  0  0  0
   -5.3350   15.6459   -0.0000 C   0  0  0  0  0  0  0  0  0  0  0  0
   -3.8620   15.1632   -0.0000 N   0  0  0  0  0  0  0  0  0  0  0  0
   -2.0671   13.1331   -0.0000 C   0  0  0  0  0  0  0  0  0  0  0  0
   -1.1388   13.9749   -0.0000 F   0  0  0  0  0  0  0  0  0  0  0  0
   -1.8320   11.9201   -0.0000 F   0  0  0  0  0  0  0  0  0  0  0  0
   -0.8912   12.7494   -0.0000 F   0  0  0  0  0  0  0  0  0  0  0  0
  1  2  1  0
  2  3  2  0
  2  4  1  0
  3  5  1  0
  3  6  1  0
  4  7  2  0
  6  8  2  0
  7  9  1  0
  8 10  1  0
 10 11  1  0
 11 12  1  1
 11 13  1  0
 13 14  1  0
 14 15  2  0
 14 16  1  0
 16 17  1  0
 16 18  1  0
 17 19  1  0
 17 20  1  6
 18 21  1  0
 20 22  1  0
 22 23  1  0
 23 24  2  0
 23 25  1  0
 24 26  1  0
 25 27  2  0
 26 28  2  0
 26 29  1  0
 29 30  1  0
 29 31  1  0
 29 32  1  0
  7  8  1  0
 19 21  1  0
 27 28  1  0
M  END
>  <MolRegNo>  (1) 
567838

>  <m>  (1) 
=

>  <Value>  (1) 
1700

>  <Unit>  (1) 
nM

>  <Type>  (1) 
IC50

>  <pValue>  (1) 
5.77

>  <Ligand Efficiency>  (1) 
0

>  <Binding Efficiency>  (1) 
0

>  <Surface Efficiency>  (1) 
0

>  <Assay Index>  (1) 
428036

>  <Assay Category>  (1) 


>  <Assay Organism>  (1) 
Homo sapiens

>  <Target ID>  (1) 
11365

>  <Target Name>  (1) 
Cytochrome P450 2D6

>  <Target Organism>  (1) 
Homo sapiens

>  <Target Description>  (1) 
Target is a single protein chain

>  <Sequence Accession>  (1) 
P10635

>  <Reference>  (1) 
Bioorg Med Chem Lett 19 (16), 4818-4823 (2009)

>  <Pubmed ID>  (1) 
19576767

>  <DOI>  (1) 
10.1016/j.bmcl.2009.06.036

$$$$
