4wnv_ligand_538
     RDKit          2D

 33 37  0  0  0  0  0  0  0  0999 V2000
    0.0000   -0.0000   -0.0000 Cl  0  0  0  0  0  0  0  0  0  0  0  0
    1.4739   -0.2377   -0.0000 C   0  0  0  0  0  0  0  0  0  0  0  0
    2.4248    0.9271   -0.0000 C   0  0  0  0  0  0  0  0  0  0  0  0
    1.9850   -1.6403   -0.0000 C   0  0  0  0  0  0  0  0  0  0  0  0
    3.8868    0.6894   -0.0000 C   0  0  0  0  0  0  0  0  0  0  0  0
    3.4470   -1.8780   -0.0000 C   0  0  0  0  0  0  0  0  0  0  0  0
    5.0398    1.6403   -0.0000 N   0  0  0  0  0  0  0  0  0  0  0  0
    4.3980   -0.7132   -0.0000 C   0  0  0  0  0  0  0  0  0  0  0  0
    6.2879    0.8202   -0.0000 C   0  0  0  0  0  0  0  0  0  0  0  0
    4.9685    3.1499   -0.0000 C   0  0  0  0  0  0  0  0  0  0  0  0
    5.8838   -0.6419   -0.0000 O   0  0  0  0  0  0  0  0  0  0  0  0
    7.6905    1.3550   -0.0000 O   0  0  0  0  0  0  0  0  0  0  0  0
    6.2641    3.9106   -0.0000 C   0  0  0  0  0  0  0  0  0  0  0  0
    7.5597    3.1737   -0.0000 O   0  0  0  0  0  0  0  0  0  0  0  0
    6.2403    5.4321   -0.0000 N   0  0  0  0  0  0  0  0  0  0  0  0
    7.5360    6.1928   -0.0000 C   0  0  0  0  0  0  0  0  0  0  0  0
    4.9210    6.1809   -0.0000 C   0  0  0  0  0  0  0  0  0  0  0  0
    7.5241    7.7024   -0.0000 C   0  0  0  0  0  0  0  0  0  0  0  0
    8.4393    5.0160   -0.0000 C   0  0  0  0  0  0  0  0  0  0  0  0
    4.9091    7.7024   -0.0000 C   0  0  0  0  0  0  0  0  0  0  0  0
    8.8197    8.4631   -0.0000 C   0  0  0  0  0  0  0  0  0  0  0  0
    6.2047    8.4631   -0.0000 C   0  0  0  0  0  0  0  0  0  0  0  0
    9.9132    5.2300   -0.0000 N   0  0  0  0  0  0  0  0  0  0  0  0
   10.1153    7.7261   -0.0000 C   0  0  0  0  0  0  0  0  0  0  0  0
    8.8078    9.9727   -0.0000 C   0  0  0  0  0  0  0  0  0  0  0  0
   10.8166    4.0533   -0.0000 C   0  0  0  0  0  0  0  0  0  0  0  0
   10.4719    6.6326   -0.0000 C   0  0  0  0  0  0  0  0  0  0  0  0
   11.3990    8.4869   -0.0000 C   0  0  0  0  0  0  0  0  0  0  0  0
   10.0915   10.7453   -0.0000 C   0  0  0  0  0  0  0  0  0  0  0  0
   12.2905    4.2553   -0.0000 C   0  0  0  0  0  0  0  0  0  0  0  0
   11.9577    6.8347   -0.0000 C   0  0  0  0  0  0  0  0  0  0  0  0
   11.3871   10.0083   -0.0000 C   0  0  0  0  0  0  0  0  0  0  0  0
   12.8611    5.6579   -0.0000 O   0  0  0  0  0  0  0  0  0  0  0  0
  1  2  1  0
  2  3  2  0
  2  4  1  0
  3  5  1  0
  4  6  2  0
  5  7  1  0
  5  8  2  0
  7  9  1  0
  7 10  1  0
  8 11  1  0
  9 12  2  0
 10 13  1  0
 13 14  2  0
 13 15  1  0
 15 16  1  0
 15 17  1  0
 16 18  1  0
 16 19  1  0
 17 20  1  0
 18 21  1  0
 18 22  1  0
 19 23  1  0
 21 24  2  0
 21 25  1  0
 23 26  1  0
 23 27  1  0
 24 28  1  0
 25 29  2  0
 26 30  1  0
 27 31  1  0
 28 32  2  0
 30 33  1  0
  6  8  1  0
  9 11  1  0
 20 22  1  0
 29 32  1  0
 31 33  1  0
M  END
>  <MolRegNo>  (1) 
426486

>  <m>  (1) 
=

>  <Value>  (1) 
3500

>  <Unit>  (1) 
nM

>  <Type>  (1) 
IC50

>  <pValue>  (1) 
5.46

>  <Ligand Efficiency>  (1) 
0

>  <Binding Efficiency>  (1) 
0

>  <Surface Efficiency>  (1) 
0

>  <Assay Index>  (1) 
328211

>  <Assay Category>  (1) 


>  <Assay Organism>  (1) 


>  <Target ID>  (1) 
11365

>  <Target Name>  (1) 
Cytochrome P450 2D6

>  <Target Organism>  (1) 
Homo sapiens

>  <Target Description>  (1) 
Target is a single protein chain

>  <Sequence Accession>  (1) 
P10635

>  <Reference>  (1) 
Bioorg Med Chem Lett 18 (12), 3500-3503 (2008)

>  <Pubmed ID>  (1) 
18502123

>  <DOI>  (1) 
10.1016/j.bmcl.2008.05.027

$$$$
