4wnv_ligand_437
     RDKit          2D

 39 42  0  0  1  0  0  0  0  0999 V2000
    0.0000   -0.0000   -0.0000 S   0  0  0  0  0  0  0  0  0  0  0  0
    1.2045    0.8944   -0.0000 C   0  0  0  0  0  0  0  0  0  0  0  0
    0.4532   -1.4192   -0.0000 C   0  0  0  0  0  0  0  0  0  0  0  0
    2.4090    0.0358   -0.0000 N   0  0  0  0  0  0  0  0  0  0  0  0
    1.1926    2.4090   -0.0000 N   0  0  0  0  0  0  0  0  0  0  0  0
    1.9439   -1.4073   -0.0000 C   0  0  0  0  0  0  0  0  0  0  0  0
   -0.3339   -2.6833   -0.0000 C   0  0  0  0  0  0  0  0  0  0  0  0
   -0.1193    3.1842   -0.0000 C   0  0  0  0  0  0  0  0  0  0  0  0
    2.8145   -2.5998   -0.0000 C   0  0  0  0  0  0  0  0  0  0  0  0
   -1.8485   -2.6475   -0.0000 O   0  0  0  0  0  0  0  0  0  0  0  0
    0.3816   -3.9832   -0.0000 C   0  0  0  0  0  0  0  0  0  0  0  0
   -1.4311    2.4448   -0.0000 O   0  0  0  0  0  0  0  0  0  0  0  0
   -0.1312    4.6988   -0.0000 N   0  0  0  0  0  0  0  0  0  0  0  0
   -1.4430    5.4620   -0.0000 C   0  0  0  0  0  0  0  0  0  0  0  0
   -1.4550    6.9766   -0.0000 C   0  0  0  0  0  0  0  0  0  0  0  0
   -2.7549    4.7346   -0.0000 C   0  0  0  0  0  0  0  0  0  0  0  0
   -2.7668    7.7518   -0.0000 C   0  0  0  0  0  0  0  0  0  0  0  0
   -0.1550    7.7399   -0.0000 C   0  0  0  0  0  0  0  0  0  0  0  0
   -4.0667    5.4859   -0.0000 N   0  0  0  0  0  0  0  0  0  0  0  0
   -4.0786    7.0005   -0.0000 C   0  0  0  0  0  0  0  0  0  0  0  0
    1.1330    6.9885   -0.0000 N   0  0  0  0  0  0  0  0  0  0  0  0
   -5.3786    4.7584   -0.0000 C   0  0  0  0  0  0  0  0  0  0  0  0
    2.4209    7.7518   -0.0000 C   0  0  0  0  0  0  0  0  0  0  0  0
    1.1210    5.4859   -0.0000 C   0  0  0  0  0  0  0  0  0  0  0  0
   -5.3905    3.2677   -0.0000 O   0  0  0  0  0  0  0  0  0  0  0  0
   -6.6785    5.5217   -0.0000 C   0  0  0  0  0  0  0  0  0  0  0  0
    3.7089    7.0005   -0.0000 C   0  0  0  0  0  0  0  0  0  0  0  0
    2.4090    4.7465   -0.0000 C   0  0  0  0  0  0  0  0  0  0  0  0
   -7.9903    4.7942   -0.0000 C   0  0  0  0  0  0  0  0  0  0  0  0
   -6.6904    7.0363   -0.0000 C   0  0  0  0  0  0  0  0  0  0  0  0
    3.6851    5.5097   -0.0000 C   0  0  0  0  0  0  0  0  0  0  0  0
    5.0089    7.7637   -0.0000 C   0  0  0  0  0  0  0  0  0  0  0  0
    6.2968    7.0124   -0.0000 C   0  0  0  0  0  0  0  0  0  0  0  0
    6.2611    5.5217   -0.0000 C   0  0  0  0  0  0  0  0  0  0  0  0
    7.5848    7.7757   -0.0000 C   0  0  0  0  0  0  0  0  0  0  0  0
    7.5491    4.7823   -0.0000 C   0  0  0  0  0  0  0  0  0  0  0  0
    8.8728    7.0243   -0.0000 C   0  0  0  0  0  0  0  0  0  0  0  0
    8.8490    5.5336   -0.0000 C   0  0  0  0  0  0  0  0  0  0  0  0
   10.1370    4.7942   -0.0000 F   0  0  0  0  0  0  0  0  0  0  0  0
  1  2  1  0
  1  3  1  0
  2  4  2  0
  2  5  1  0
  3  6  2  0
  3  7  1  0
  5  8  1  0
  6  9  1  0
  7 10  2  0
  7 11  1  0
  8 12  2  0
  8 13  1  0
 14 13  1  6
 14 15  1  0
 14 16  1  0
 15 17  1  0
 15 18  1  1
 16 19  1  0
 17 20  1  0
 18 21  1  0
 19 22  1  0
 21 23  1  0
 21 24  1  0
 22 25  2  0
 22 26  1  0
 23 27  1  0
 24 28  1  0
 26 29  1  0
 26 30  1  0
 27 31  1  0
 27 32  1  6
 32 33  1  0
 33 34  2  0
 33 35  1  0
 34 36  1  0
 35 37  2  0
 36 38  2  0
 38 39  1  0
  4  6  1  0
 19 20  1  0
 28 31  1  0
 37 38  1  0
M  END
>  <MolRegNo>  (1) 
421506

>  <m>  (1) 
=

>  <Value>  (1) 
810

>  <Unit>  (1) 
nM

>  <Type>  (1) 
IC50

>  <pValue>  (1) 
6.09

>  <Ligand Efficiency>  (1) 
0

>  <Binding Efficiency>  (1) 
0

>  <Surface Efficiency>  (1) 
0

>  <Assay Index>  (1) 
307824

>  <Assay Category>  (1) 


>  <Assay Organism>  (1) 
Homo sapiens

>  <Target ID>  (1) 
11365

>  <Target Name>  (1) 
Cytochrome P450 2D6

>  <Target Organism>  (1) 
Homo sapiens

>  <Target Description>  (1) 
Target is a single protein chain

>  <Sequence Accession>  (1) 
P10635

>  <Reference>  (1) 
Bioorg Med Chem Lett 17 (11), 2992-2997 (2007)

>  <Pubmed ID>  (1) 
17418570

>  <DOI>  (1) 
10.1016/j.bmcl.2007.03.065

$$$$
