4wnv_ligand_59
     RDKit          2D

 22 26  0  0  1  0  0  0  0  0999 V2000
    0.0000   -0.0000   -0.0000 O   0  0  0  0  0  0  0  0  0  0  0  0
   -1.3860    0.7463   -0.0000 C   0  0  0  0  0  0  0  0  0  0  0  0
    1.4499    0.7463   -0.0000 C   0  0  0  0  0  0  0  0  0  0  0  0
   -2.8359    0.7676   -0.0000 C   0  0  0  0  0  0  0  0  0  0  0  0
   -0.7036    2.0043   -0.0000 C   0  0  0  0  0  0  0  0  0  0  0  0
    0.7250    2.0256   -0.0000 C   0  0  0  0  0  0  0  0  0  0  0  0
    2.8785    0.7463   -0.0000 C   0  0  0  0  0  0  0  0  0  0  0  0
   -3.5822   -0.4691   -0.0000 O   0  0  0  0  0  0  0  0  0  0  0  0
   -3.5608    2.0256   -0.0000 C   0  0  0  0  0  0  0  0  0  0  0  0
   -1.4286    3.2836   -0.0000 C   0  0  0  0  0  0  0  0  0  0  0  0
    1.4286    3.2836   -0.0000 C   0  0  0  0  0  0  0  0  0  0  0  0
   -0.0213    3.0704   -0.0000 C   0  0  0  0  0  0  0  0  0  0  0  0
    3.5608   -0.4904   -0.0000 O   0  0  0  0  0  0  0  0  0  0  0  0
    3.5822    2.0043   -0.0000 C   0  0  0  0  0  0  0  0  0  0  0  0
   -5.0321   -0.4478   -0.0000 C   0  0  0  0  0  0  0  0  0  0  0  0
   -2.8785    3.3050   -0.0000 C   0  0  0  0  0  0  0  0  0  0  0  0
   -0.7463    4.5630   -0.0000 C   0  0  0  0  0  0  0  0  0  0  0  0
    2.8359    3.3050   -0.0000 C   0  0  0  0  0  0  0  0  0  0  0  0
    0.7036    4.5417   -0.0000 C   0  0  0  0  0  0  0  0  0  0  0  0
   -0.0213    5.7997   -0.0000 C   0  0  0  0  0  0  0  0  0  0  0  0
    1.3860    5.8210   -0.0000 N   0  0  0  0  0  0  0  0  0  0  0  0
    2.6226    6.5673   -0.0000 C   0  0  0  0  0  0  0  0  0  0  0  0
  1  2  1  0
  3  1  1  6
  2  4  2  0
  2  5  1  0
  3  6  1  0
  3  7  1  0
  4  8  1  0
  4  9  1  0
  5 10  2  0
  6 11  1  0
  6 12  1  1
  7 13  1  6
  7 14  1  0
  8 15  1  0
  9 16  2  0
 10 17  1  0
 11 18  1  6
 11 19  1  0
 12 20  1  0
 19 21  1  0
 21 22  1  0
  5  6  1  0
 10 16  1  0
 14 18  2  0
 19 17  1  1
 20 21  1  0
M  END
>  <MolRegNo>  (1) 
6167

>  <m>  (1) 
=

>  <Value>  (1) 
104000

>  <Unit>  (1) 
nM

>  <Type>  (1) 
IC50

>  <pValue>  (1) 
0

>  <Ligand Efficiency>  (1) 
0

>  <Binding Efficiency>  (1) 
0

>  <Surface Efficiency>  (1) 
0

>  <Assay Index>  (1) 
51626

>  <Assay Category>  (1) 


>  <Assay Organism>  (1) 
Homo sapiens

>  <Target ID>  (1) 
11365

>  <Target Name>  (1) 
Cytochrome P450 2D6

>  <Target Organism>  (1) 
Homo sapiens

>  <Target Description>  (1) 
Target is a single protein chain

>  <Sequence Accession>  (1) 
P10635

>  <Reference>  (1) 
J Med Chem 46 (1), 74-86 (2003)

>  <Pubmed ID>  (1) 
12502361

>  <DOI>  (1) 
10.1021/jm0209578

$$$$
