4wnv_ligand_1082
     RDKit          2D

 22 24  0  0  0  0  0  0  0  0999 V2000
    0.0000   -0.0000   -0.0000 S   0  0  0  0  0  0  0  0  0  0  0  0
    1.0993   -0.9929   -0.0000 C   0  0  0  0  0  0  0  0  0  0  0  0
    0.6146    1.3711   -0.0000 C   0  0  0  0  0  0  0  0  0  0  0  0
    2.3876   -0.2364   -0.0000 C   0  0  0  0  0  0  0  0  0  0  0  0
    1.0874   -2.4704   -0.0000 C   0  0  0  0  0  0  0  0  0  0  0  0
   -0.1418    2.6832   -0.0000 C   0  0  0  0  0  0  0  0  0  0  0  0
    2.0803    1.2293   -0.0000 C   0  0  0  0  0  0  0  0  0  0  0  0
    3.6642   -0.9692   -0.0000 C   0  0  0  0  0  0  0  0  0  0  0  0
    2.3758   -3.2032   -0.0000 C   0  0  0  0  0  0  0  0  0  0  0  0
    0.6028    3.9952   -0.0000 O   0  0  0  0  0  0  0  0  0  0  0  0
   -1.6548    2.6950   -0.0000 C   0  0  0  0  0  0  0  0  0  0  0  0
    3.6642   -2.4468   -0.0000 C   0  0  0  0  0  0  0  0  0  0  0  0
   -1.1702    1.2884   -0.0000 C   0  0  0  0  0  0  0  0  0  0  0  0
   -3.1678    2.6713   -0.0000 C   0  0  0  0  0  0  0  0  0  0  0  0
   -2.1512    4.1252   -0.0000 C   0  0  0  0  0  0  0  0  0  0  0  0
   -2.3640    0.3782   -0.0000 N   0  0  0  0  0  0  0  0  0  0  0  0
   -3.6051    1.2411   -0.0000 C   0  0  0  0  0  0  0  0  0  0  0  0
   -3.6406    4.4325   -0.0000 C   0  0  0  0  0  0  0  0  0  0  0  0
   -4.1370    5.8627   -0.0000 C   0  0  0  0  0  0  0  0  0  0  0  0
   -5.6145    6.1701   -0.0000 C   0  0  0  0  0  0  0  0  0  0  0  0
   -3.1560    7.0093   -0.0000 C   0  0  0  0  0  0  0  0  0  0  0  0
   -4.9171    7.1866   -0.0000 C   0  0  0  0  0  0  0  0  0  0  0  0
  1  2  1  0
  1  3  1  0
  2  4  2  0
  2  5  1  0
  3  6  1  0
  3  7  2  0
  4  8  1  0
  5  9  2  0
  6 10  2  0
  6 11  1  0
  8 12  2  0
 11 13  1  0
 11 14  1  0
 11 15  1  0
 13 16  1  0
 14 17  1  0
 15 18  1  0
 18 19  1  0
 19 20  1  0
 19 21  1  0
 19 22  1  0
  4  7  1  0
  9 12  1  0
 16 17  1  0
M  END
>  <MolRegNo>  (1) 
690691

>  <m>  (1) 
=

>  <Value>  (1) 
12000

>  <Unit>  (1) 
nM

>  <Type>  (1) 
IC50

>  <pValue>  (1) 
4.92

>  <Ligand Efficiency>  (1) 
0

>  <Binding Efficiency>  (1) 
0

>  <Surface Efficiency>  (1) 
0

>  <Assay Index>  (1) 
497257

>  <Assay Category>  (1) 


>  <Assay Organism>  (1) 


>  <Target ID>  (1) 
11365

>  <Target Name>  (1) 
Cytochrome P450 2D6

>  <Target Organism>  (1) 
Homo sapiens

>  <Target Description>  (1) 
Target is a single protein chain

>  <Sequence Accession>  (1) 
P10635

>  <Reference>  (1) 
Bioorg Med Chem Lett 20 (18), 5559-5566 (2010)

>  <Pubmed ID>  (1) 
20691589

>  <DOI>  (1) 
10.1016/j.bmcl.2010.07.020

$$$$
