4wnv_ligand_1044
     RDKit          2D

 23 26  0  0  0  0  0  0  0  0999 V2000
    0.0000   -0.0000   -0.0000 N   0  0  0  0  0  0  0  0  0  0  0  0
   -0.9077   -1.2024   -0.0000 N   0  0  0  0  0  0  0  0  0  0  0  0
   -0.8959    1.2378   -0.0000 C   0  0  0  0  0  0  0  0  0  0  0  0
   -2.3576   -0.7191   -0.0000 C   0  0  0  0  0  0  0  0  0  0  0  0
   -2.3458    0.7898   -0.0000 C   0  0  0  0  0  0  0  0  0  0  0  0
   -3.6661   -1.4499   -0.0000 C   0  0  0  0  0  0  0  0  0  0  0  0
   -3.6543    1.5442   -0.0000 C   0  0  0  0  0  0  0  0  0  0  0  0
   -4.9746   -0.6837   -0.0000 C   0  0  0  0  0  0  0  0  0  0  0  0
   -4.9510    0.8134   -0.0000 C   0  0  0  0  0  0  0  0  0  0  0  0
   -6.2477    1.5678   -0.0000 N   0  0  0  0  0  0  0  0  0  0  0  0
   -6.2595    3.0767   -0.0000 C   0  0  0  0  0  0  0  0  0  0  0  0
   -7.5444    0.8370   -0.0000 C   0  0  0  0  0  0  0  0  0  0  0  0
   -7.5562    3.8429   -0.0000 C   0  0  0  0  0  0  0  0  0  0  0  0
   -4.9746    3.8312   -0.0000 C   0  0  0  0  0  0  0  0  0  0  0  0
   -8.8411    1.5914   -0.0000 C   0  0  0  0  0  0  0  0  0  0  0  0
   -8.8529    3.1003   -0.0000 N   0  0  0  0  0  0  0  0  0  0  0  0
   -3.6897    3.0885   -0.0000 C   0  0  0  0  0  0  0  0  0  0  0  0
   -2.4048    3.8429   -0.0000 C   0  0  0  0  0  0  0  0  0  0  0  0
   -1.1317    3.1003   -0.0000 C   0  0  0  0  0  0  0  0  0  0  0  0
   -2.4166    5.3400   -0.0000 C   0  0  0  0  0  0  0  0  0  0  0  0
    0.1532    3.8547   -0.0000 C   0  0  0  0  0  0  0  0  0  0  0  0
   -1.1317    6.0945   -0.0000 C   0  0  0  0  0  0  0  0  0  0  0  0
    0.1415    5.3636   -0.0000 C   0  0  0  0  0  0  0  0  0  0  0  0
  1  2  1  0
  1  3  2  0
  2  4  1  0
  3  5  1  0
  4  6  2  0
  5  7  2  0
  6  8  1  0
  7  9  1  0
  9 10  1  0
 10 11  1  0
 10 12  1  0
 11 13  1  0
 11 14  1  0
 12 15  1  0
 13 16  1  0
 14 17  1  0
 17 18  1  0
 18 19  2  0
 18 20  1  0
 19 21  1  0
 20 22  2  0
 21 23  2  0
  4  5  1  0
  8  9  2  0
 15 16  1  0
 22 23  1  0
M  END
>  <MolRegNo>  (1) 
648316

>  <m>  (1) 
=

>  <Value>  (1) 
60

>  <Unit>  (1) 
nM

>  <Type>  (1) 
IC50

>  <pValue>  (1) 
7.22

>  <Ligand Efficiency>  (1) 
0

>  <Binding Efficiency>  (1) 
0

>  <Surface Efficiency>  (1) 
0

>  <Assay Index>  (1) 
485181

>  <Assay Category>  (1) 


>  <Assay Organism>  (1) 


>  <Target ID>  (1) 
11365

>  <Target Name>  (1) 
Cytochrome P450 2D6

>  <Target Organism>  (1) 
Homo sapiens

>  <Target Description>  (1) 
Target is a single protein chain

>  <Sequence Accession>  (1) 
P10635

>  <Reference>  (1) 
Bioorg Med Chem Lett 20 (13), 3941-3945 (2010)

>  <Pubmed ID>  (1) 
20570146

>  <DOI>  (1) 
10.1016/j.bmcl.2010.05.008

$$$$
