4wnv_ligand_146
     RDKit          2D

 28 31  0  0  0  0  0  0  0  0999 V2000
    0.0000   -0.0000   -0.0000 S   0  0  0  0  0  0  0  0  0  0  0  0
   -1.5448   -0.0121   -0.0000 O   0  0  0  0  0  0  0  0  0  0  0  0
    1.5207    0.0121   -0.0000 O   0  0  0  0  0  0  0  0  0  0  0  0
   -0.0121   -1.5207   -0.0000 N   0  0  0  0  0  0  0  0  0  0  0  0
   -0.0362    1.5448   -0.0000 C   0  0  0  0  0  0  0  0  0  0  0  0
    1.3034   -2.2810   -0.0000 C   0  0  0  0  0  0  0  0  0  0  0  0
    2.5948   -1.5086   -0.0000 C   0  0  0  0  0  0  0  0  0  0  0  0
    1.2914   -3.7896   -0.0000 C   0  0  0  0  0  0  0  0  0  0  0  0
    3.8741   -2.2568   -0.0000 C   0  0  0  0  0  0  0  0  0  0  0  0
    2.5827   -4.5258   -0.0000 C   0  0  0  0  0  0  0  0  0  0  0  0
    5.1533   -1.4845   -0.0000 O   0  0  0  0  0  0  0  0  0  0  0  0
    3.8620   -3.7654   -0.0000 C   0  0  0  0  0  0  0  0  0  0  0  0
    6.4688   -2.2327   -0.0000 C   0  0  0  0  0  0  0  0  0  0  0  0
    5.1413   -4.5016   -0.0000 N   0  0  0  0  0  0  0  0  0  0  0  0
    5.1292   -5.9861   -0.0000 C   0  0  0  0  0  0  0  0  0  0  0  0
    3.8258   -6.7223   -0.0000 C   0  0  0  0  0  0  0  0  0  0  0  0
    6.4085   -6.7223   -0.0000 C   0  0  0  0  0  0  0  0  0  0  0  0
    3.8137   -8.2067   -0.0000 C   0  0  0  0  0  0  0  0  0  0  0  0
    2.5224   -5.9619   -0.0000 C   0  0  0  0  0  0  0  0  0  0  0  0
    6.3964   -8.2067   -0.0000 C   0  0  0  0  0  0  0  0  0  0  0  0
    7.6998   -5.9619   -0.0000 C   0  0  0  0  0  0  0  0  0  0  0  0
    5.0930   -8.9550   -0.0000 N   0  0  0  0  0  0  0  0  0  0  0  0
    2.5103   -8.9550   -0.0000 C   0  0  0  0  0  0  0  0  0  0  0  0
    1.2069   -6.6981   -0.0000 C   0  0  0  0  0  0  0  0  0  0  0  0
    7.6878   -8.9550   -0.0000 C   0  0  0  0  0  0  0  0  0  0  0  0
    8.9791   -6.6981   -0.0000 C   0  0  0  0  0  0  0  0  0  0  0  0
    1.1948   -8.1826   -0.0000 C   0  0  0  0  0  0  0  0  0  0  0  0
    8.9670   -8.1826   -0.0000 C   0  0  0  0  0  0  0  0  0  0  0  0
  1  2  2  0
  1  3  2  0
  1  4  1  0
  1  5  1  0
  4  6  1  0
  6  7  2  0
  6  8  1  0
  7  9  1  0
  8 10  2  0
  9 11  1  0
  9 12  2  0
 11 13  1  0
 12 14  1  0
 14 15  1  0
 15 16  1  0
 15 17  2  0
 16 18  1  0
 16 19  2  0
 17 20  1  0
 17 21  1  0
 18 22  1  0
 18 23  2  0
 19 24  1  0
 20 25  1  0
 21 26  2  0
 23 27  1  0
 25 28  2  0
 10 12  1  0
 20 22  2  0
 24 27  2  0
 26 28  1  0
M  END
>  <MolRegNo>  (1) 
2580

>  <m>  (1) 
=

>  <Value>  (1) 
10500

>  <Unit>  (1) 
nM

>  <Type>  (1) 
IC50

>  <pValue>  (1) 
4.98

>  <Ligand Efficiency>  (1) 
0

>  <Binding Efficiency>  (1) 
0

>  <Surface Efficiency>  (1) 
0

>  <Assay Index>  (1) 
237541

>  <Assay Category>  (1) 


>  <Assay Organism>  (1) 


>  <Target ID>  (1) 
11365

>  <Target Name>  (1) 
Cytochrome P450 2D6

>  <Target Organism>  (1) 
Homo sapiens

>  <Target Description>  (1) 
Target is a single protein chain

>  <Sequence Accession>  (1) 
P10635

>  <Reference>  (1) 
J Med Chem 47 (22), 5340-5346 (2004)

>  <Pubmed ID>  (1) 
15481972

>  <DOI>  (1) 
10.1021/jm049934e

$$$$
