4wnv_ligand_894
     RDKit          2D

 28 31  0  0  0  0  0  0  0  0999 V2000
    0.0000   -0.0000   -0.0000 O   0  0  0  0  0  0  0  0  0  0  0  0
    0.7466    1.3035   -0.0000 C   0  0  0  0  0  0  0  0  0  0  0  0
    0.0000    2.6189   -0.0000 N   0  0  0  0  0  0  0  0  0  0  0  0
    2.2278    1.3035   -0.0000 C   0  0  0  0  0  0  0  0  0  0  0  0
    0.7466    3.9224   -0.0000 C   0  0  0  0  0  0  0  0  0  0  0  0
   -1.5050    2.6426   -0.0000 C   0  0  0  0  0  0  0  0  0  0  0  0
    2.9507    0.0119   -0.0000 C   0  0  0  0  0  0  0  0  0  0  0  0
    2.9625    2.6070   -0.0000 C   0  0  0  0  0  0  0  0  0  0  0  0
    0.0000    5.2377   -0.0000 C   0  0  0  0  0  0  0  0  0  0  0  0
   -2.2515    3.9461   -0.0000 C   0  0  0  0  0  0  0  0  0  0  0  0
    4.4319    0.0119   -0.0000 C   0  0  0  0  0  0  0  0  0  0  0  0
    4.4438    2.6070   -0.0000 C   0  0  0  0  0  0  0  0  0  0  0  0
   -1.5050    5.2496   -0.0000 N   0  0  0  0  0  0  0  0  0  0  0  0
    0.7466    6.5412   -0.0000 C   0  0  0  0  0  0  0  0  0  0  0  0
    5.1785    1.3154   -0.0000 C   0  0  0  0  0  0  0  0  0  0  0  0
   -2.2515    6.5649   -0.0000 C   0  0  0  0  0  0  0  0  0  0  0  0
   -1.5050    7.8684   -0.0000 O   0  0  0  0  0  0  0  0  0  0  0  0
   -3.7565    6.5886   -0.0000 C   0  0  0  0  0  0  0  0  0  0  0  0
   -4.5030    7.9040   -0.0000 O   0  0  0  0  0  0  0  0  0  0  0  0
   -4.5267    5.3088   -0.0000 C   0  0  0  0  0  0  0  0  0  0  0  0
   -5.9724    4.8585   -0.0000 C   0  0  0  0  0  0  0  0  0  0  0  0
   -3.6498    4.1001   -0.0000 C   0  0  0  0  0  0  0  0  0  0  0  0
   -5.9843    3.3654   -0.0000 C   0  0  0  0  0  0  0  0  0  0  0  0
   -7.2759    5.6169   -0.0000 C   0  0  0  0  0  0  0  0  0  0  0  0
   -4.5504    2.8914   -0.0000 N   0  0  0  0  0  0  0  0  0  0  0  0
   -7.2878    2.6307   -0.0000 C   0  0  0  0  0  0  0  0  0  0  0  0
   -8.5794    4.8822   -0.0000 C   0  0  0  0  0  0  0  0  0  0  0  0
   -8.5913    3.3891   -0.0000 N   0  0  0  0  0  0  0  0  0  0  0  0
  1  2  2  0
  2  3  1  0
  2  4  1  0
  3  5  1  0
  3  6  1  0
  4  7  2  0
  4  8  1  0
  5  9  1  0
  6 10  1  0
  7 11  1  0
  8 12  2  0
  9 13  1  0
  9 14  1  1
 11 15  2  0
 13 16  1  0
 16 17  2  0
 16 18  1  0
 18 19  2  0
 18 20  1  0
 20 21  1  0
 20 22  2  0
 21 23  2  0
 21 24  1  0
 22 25  1  0
 23 26  1  0
 24 27  2  0
 26 28  2  0
 10 13  1  0
 12 15  1  0
 23 25  1  0
 27 28  1  0
M  END
>  <MolRegNo>  (1) 
576648

>  <m>  (1) 
=

>  <Value>  (1) 
38000

>  <Unit>  (1) 
nM

>  <Type>  (1) 
IC50

>  <pValue>  (1) 
4.42

>  <Ligand Efficiency>  (1) 
0

>  <Binding Efficiency>  (1) 
0

>  <Surface Efficiency>  (1) 
0

>  <Assay Index>  (1) 
443137

>  <Assay Category>  (1) 


>  <Assay Organism>  (1) 


>  <Target ID>  (1) 
11365

>  <Target Name>  (1) 
Cytochrome P450 2D6

>  <Target Organism>  (1) 
Homo sapiens

>  <Target Description>  (1) 
Target is a single protein chain

>  <Sequence Accession>  (1) 
P10635

>  <Reference>  (1) 
J Med Chem 52 (23), 7778-7787 (2009)

>  <Pubmed ID>  (1) 
19769332

>  <DOI>  (1) 
10.1021/jm900843g

$$$$
