4wnv_ligand_800
     RDKit          2D

 27 30  0  0  0  0  0  0  0  0999 V2000
    0.0000   -0.0000   -0.0000 S   0  0  0  0  0  0  0  0  0  0  0  0
    1.3955   -0.4967   -0.0000 C   0  0  0  0  0  0  0  0  0  0  0  0
    0.0355    1.5137   -0.0000 C   0  0  0  0  0  0  0  0  0  0  0  0
    1.7976   -1.9276   -0.0000 C   0  0  0  0  0  0  0  0  0  0  0  0
    2.3061    0.6977   -0.0000 C   0  0  0  0  0  0  0  0  0  0  0  0
   -1.1590    2.4480   -0.0000 C   0  0  0  0  0  0  0  0  0  0  0  0
    1.4664    1.9395   -0.0000 C   0  0  0  0  0  0  0  0  0  0  0  0
    0.7450   -3.0038   -0.0000 C   0  0  0  0  0  0  0  0  0  0  0  0
    3.2403   -2.2824   -0.0000 C   0  0  0  0  0  0  0  0  0  0  0  0
   -2.5662    1.8922   -0.0000 O   0  0  0  0  0  0  0  0  0  0  0  0
   -0.9697    3.9499   -0.0000 N   0  0  0  0  0  0  0  0  0  0  0  0
    1.1471   -4.4348   -0.0000 C   0  0  0  0  0  0  0  0  0  0  0  0
   -0.7214   -2.6254   -0.0000 C   0  0  0  0  0  0  0  0  0  0  0  0
    3.6424   -3.7134   -0.0000 C   0  0  0  0  0  0  0  0  0  0  0  0
   -2.1642    4.8841   -0.0000 C   0  0  0  0  0  0  0  0  0  0  0  0
    0.4139    4.5294   -0.0000 C   0  0  0  0  0  0  0  0  0  0  0  0
    2.5899   -4.7895   -0.0000 O   0  0  0  0  0  0  0  0  0  0  0  0
    0.0946   -5.5109   -0.0000 C   0  0  0  0  0  0  0  0  0  0  0  0
   -1.7739   -3.7015   -0.0000 C   0  0  0  0  0  0  0  0  0  0  0  0
    4.0445   -5.1443   -0.0000 C   0  0  0  0  0  0  0  0  0  0  0  0
    4.6713   -2.6136   -0.0000 C   0  0  0  0  0  0  0  0  0  0  0  0
   -1.9749    6.3861   -0.0000 C   0  0  0  0  0  0  0  0  0  0  0  0
    0.6031    6.0313   -0.0000 C   0  0  0  0  0  0  0  0  0  0  0  0
   -1.3718   -5.1325   -0.0000 C   0  0  0  0  0  0  0  0  0  0  0  0
    5.4873   -5.4991   -0.0000 C   0  0  0  0  0  0  0  0  0  0  0  0
    6.1141   -2.9683   -0.0000 C   0  0  0  0  0  0  0  0  0  0  0  0
    6.5161   -4.3993   -0.0000 N   0  0  0  0  0  0  0  0  0  0  0  0
  1  2  1  0
  1  3  1  0
  2  4  1  0
  2  5  2  0
  3  6  1  0
  3  7  2  0
  4  8  1  0
  4  9  2  0
  6 10  2  0
  6 11  1  0
  8 12  2  0
  8 13  1  0
  9 14  1  0
 11 15  1  0
 11 16  1  0
 12 17  1  0
 12 18  1  0
 13 19  2  0
 14 20  1  0
 14 21  1  0
 15 22  1  0
 16 23  1  0
 18 24  2  0
 20 25  1  0
 21 26  1  0
 25 27  1  0
  5  7  1  0
 14 17  1  0
 19 24  1  0
 26 27  1  0
M  END
>  <MolRegNo>  (1) 
562726

>  <m>  (1) 
=

>  <Value>  (1) 
2100

>  <Unit>  (1) 
nM

>  <Type>  (1) 
IC50

>  <pValue>  (1) 
5.68

>  <Ligand Efficiency>  (1) 
0

>  <Binding Efficiency>  (1) 
0

>  <Surface Efficiency>  (1) 
0

>  <Assay Index>  (1) 
428577

>  <Assay Category>  (1) 


>  <Assay Organism>  (1) 
Homo sapiens

>  <Target ID>  (1) 
11365

>  <Target Name>  (1) 
Cytochrome P450 2D6

>  <Target Organism>  (1) 
Homo sapiens

>  <Target Description>  (1) 
Target is a single protein chain

>  <Sequence Accession>  (1) 
P10635

>  <Reference>  (1) 
J Med Chem 52 (18), 5685-5702 (2009)

>  <Pubmed ID>  (1) 
19694468

>  <DOI>  (1) 
10.1021/jm900773n

$$$$
