4wnv_ligand_304
     RDKit          2D

 33 36  0  0  1  0  0  0  0  0999 V2000
    0.0000   -0.0000   -0.0000 S   0  0  0  0  0  0  0  0  0  0  0  0
   -1.0296   -1.0887   -0.0000 C   0  0  0  0  0  0  0  0  0  0  0  0
    1.3491   -0.6154   -0.0000 C   0  0  0  0  0  0  0  0  0  0  0  0
   -2.5325   -0.8994   -0.0000 C   0  0  0  0  0  0  0  0  0  0  0  0
   -0.3077   -2.3905   -0.0000 C   0  0  0  0  0  0  0  0  0  0  0  0
    2.6508    0.1302   -0.0000 C   0  0  0  0  0  0  0  0  0  0  0  0
    1.1597   -2.1065   -0.0000 C   0  0  0  0  0  0  0  0  0  0  0  0
   -3.1242    0.4970   -0.0000 C   0  0  0  0  0  0  0  0  0  0  0  0
   -3.4319   -2.0828   -0.0000 C   0  0  0  0  0  0  0  0  0  0  0  0
    2.6627    1.6449   -0.0000 O   0  0  0  0  0  0  0  0  0  0  0  0
    3.9289   -0.6272   -0.0000 N   0  0  0  0  0  0  0  0  0  0  0  0
   -4.6271    0.6864   -0.0000 C   0  0  0  0  0  0  0  0  0  0  0  0
   -4.9348   -1.8934   -0.0000 C   0  0  0  0  0  0  0  0  0  0  0  0
    5.2306    0.1183   -0.0000 C   0  0  0  0  0  0  0  0  0  0  0  0
    3.8461   -2.1183   -0.0000 C   0  0  0  0  0  0  0  0  0  0  0  0
   -5.5383   -0.5089   -0.0000 C   0  0  0  0  0  0  0  0  0  0  0  0
    6.5797   -0.4970   -0.0000 C   0  0  0  0  0  0  0  0  0  0  0  0
    5.3963    1.6213   -0.0000 C   0  0  0  0  0  0  0  0  0  0  0  0
   -7.0412   -0.3195   -0.0000 C   0  0  0  0  0  0  0  0  0  0  0  0
    7.5856    0.6154   -0.0000 N   0  0  0  0  0  0  0  0  0  0  0  0
    6.8637    1.9289   -0.0000 C   0  0  0  0  0  0  0  0  0  0  0  0
   -7.6448    1.0769   -0.0000 C   0  0  0  0  0  0  0  0  0  0  0  0
    9.0649    0.4497   -0.0000 C   0  0  0  0  0  0  0  0  0  0  0  0
    9.9524    1.6686   -0.0000 O   0  0  0  0  0  0  0  0  0  0  0  0
    9.6447   -0.9231   -0.0000 N   0  0  0  0  0  0  0  0  0  0  0  0
   11.1003   -1.2426   -0.0000 C   0  0  0  0  0  0  0  0  0  0  0  0
    8.8637   -2.2011   -0.0000 C   0  0  0  0  0  0  0  0  0  0  0  0
   11.2305   -2.7218   -0.0000 C   0  0  0  0  0  0  0  0  0  0  0  0
    9.8459   -3.3254   -0.0000 C   0  0  0  0  0  0  0  0  0  0  0  0
   12.5085   -3.4792   -0.0000 N   0  0  0  0  0  0  0  0  0  0  0  0
   13.8103   -2.7337   -0.0000 C   0  0  0  0  0  0  0  0  0  0  0  0
   15.0884   -3.4910   -0.0000 C   0  0  0  0  0  0  0  0  0  0  0  0
   13.8103   -1.2189   -0.0000 C   0  0  0  0  0  0  0  0  0  0  0  0
  1  2  1  0
  1  3  1  0
  2  4  1  0
  2  5  2  0
  3  6  1  0
  3  7  2  0
  4  8  2  0
  4  9  1  0
  6 10  2  0
  6 11  1  0
  8 12  1  0
  9 13  2  0
 14 11  1  1
 11 15  1  0
 12 16  2  0
 14 17  1  0
 14 18  1  0
 16 19  1  0
 17 20  1  0
 18 21  1  0
 19 22  1  0
 20 23  1  0
 23 24  2  0
 23 25  1  0
 25 26  1  0
 25 27  1  0
 26 28  1  0
 27 29  1  0
 28 30  1  6
 30 31  1  0
 31 32  1  0
 31 33  1  0
  5  7  1  0
 13 16  1  0
 20 21  1  0
 28 29  1  0
M  END
>  <MolRegNo>  (1) 
359742

>  <m>  (1) 
=

>  <Value>  (1) 
9200

>  <Unit>  (1) 
nM

>  <Type>  (1) 
IC50

>  <pValue>  (1) 
5.04

>  <Ligand Efficiency>  (1) 
0

>  <Binding Efficiency>  (1) 
0

>  <Surface Efficiency>  (1) 
0

>  <Assay Index>  (1) 
268140

>  <Assay Category>  (1) 


>  <Assay Organism>  (1) 
Homo sapiens

>  <Target ID>  (1) 
11365

>  <Target Name>  (1) 
Cytochrome P450 2D6

>  <Target Organism>  (1) 
Homo sapiens

>  <Target Description>  (1) 
Target is a single protein chain

>  <Sequence Accession>  (1) 
P10635

>  <Reference>  (1) 
Bioorg Med Chem Lett 16 (18), 4922-4930 (2006)

>  <Pubmed ID>  (1) 
16824755

>  <DOI>  (1) 
10.1016/j.bmcl.2006.06.049

$$$$
