4wnv_ligand_781
     RDKit          2D

 21 24  0  0  0  0  0  0  0  0999 V2000
    0.0000   -0.0000   -0.0000 Br  0  0  0  0  0  0  0  0  0  0  0  0
   -1.0115    1.1173   -0.0000 C   0  0  0  0  0  0  0  0  0  0  0  0
   -2.4816    0.8233   -0.0000 C   0  0  0  0  0  0  0  0  0  0  0  0
   -0.5645    2.5522   -0.0000 C   0  0  0  0  0  0  0  0  0  0  0  0
   -3.4931    1.9406   -0.0000 C   0  0  0  0  0  0  0  0  0  0  0  0
   -1.5760    3.6695   -0.0000 C   0  0  0  0  0  0  0  0  0  0  0  0
   -3.0462    3.3755   -0.0000 C   0  0  0  0  0  0  0  0  0  0  0  0
   -4.9986    1.9524   -0.0000 C   0  0  0  0  0  0  0  0  0  0  0  0
   -4.2694    4.2694   -0.0000 N   0  0  0  0  0  0  0  0  0  0  0  0
   -5.4690    3.3873   -0.0000 C   0  0  0  0  0  0  0  0  0  0  0  0
   -6.0100    0.8586   -0.0000 C   0  0  0  0  0  0  0  0  0  0  0  0
   -6.9392    3.7048   -0.0000 C   0  0  0  0  0  0  0  0  0  0  0  0
   -7.4802    1.1761   -0.0000 C   0  0  0  0  0  0  0  0  0  0  0  0
   -7.4096    5.1397   -0.0000 N   0  0  0  0  0  0  0  0  0  0  0  0
   -7.9506    2.6110   -0.0000 C   0  0  0  0  0  0  0  0  0  0  0  0
   -6.4217    6.2570   -0.0000 C   0  0  0  0  0  0  0  0  0  0  0  0
   -6.8921    7.6919   -0.0000 C   0  0  0  0  0  0  0  0  0  0  0  0
   -4.9750    5.9630   -0.0000 C   0  0  0  0  0  0  0  0  0  0  0  0
   -5.9042    8.8092   -0.0000 C   0  0  0  0  0  0  0  0  0  0  0  0
   -3.9871    7.0803   -0.0000 C   0  0  0  0  0  0  0  0  0  0  0  0
   -4.4575    8.5152   -0.0000 C   0  0  0  0  0  0  0  0  0  0  0  0
  1  2  1  0
  2  3  2  0
  2  4  1  0
  3  5  1  0
  4  6  2  0
  5  7  2  0
  5  8  1  0
  7  9  1  0
  8 10  2  0
  8 11  1  0
 10 12  1  0
 11 13  1  0
 12 14  1  0
 12 15  1  0
 14 16  1  0
 16 17  2  0
 16 18  1  0
 17 19  1  0
 18 20  2  0
 19 21  2  0
  6  7  1  0
  9 10  1  0
 13 15  1  0
 20 21  1  0
M  END
>  <MolRegNo>  (1) 
563660

>  <m>  (1) 
=

>  <Value>  (1) 
32000

>  <Unit>  (1) 
nM

>  <Type>  (1) 
IC50

>  <pValue>  (1) 
4.5

>  <Ligand Efficiency>  (1) 
0

>  <Binding Efficiency>  (1) 
0

>  <Surface Efficiency>  (1) 
0

>  <Assay Index>  (1) 
423229

>  <Assay Category>  (1) 


>  <Assay Organism>  (1) 


>  <Target ID>  (1) 
11365

>  <Target Name>  (1) 
Cytochrome P450 2D6

>  <Target Organism>  (1) 
Homo sapiens

>  <Target Description>  (1) 
Target is a single protein chain

>  <Sequence Accession>  (1) 
P10635

>  <Reference>  (1) 
Bioorg Med Chem Lett 19 (15), 4110-4114 (2009)

>  <Pubmed ID>  (1) 
19556128

>  <DOI>  (1) 
10.1016/j.bmcl.2009.06.001

$$$$
