4wnv_ligand_150
     RDKit          2D

 18 19  0  0  0  0  0  0  0  0999 V2000
    0.0000   -0.0000   -0.0000 Cl  0  0  0  0  0  0  0  0  0  0  0  0
   -0.0118    1.5158   -0.0000 C   0  0  0  0  0  0  0  0  0  0  0  0
    1.2789    2.2737   -0.0000 C   0  0  0  0  0  0  0  0  0  0  0  0
   -1.3263    2.2737   -0.0000 C   0  0  0  0  0  0  0  0  0  0  0  0
    2.5697    1.5395   -0.0000 S   0  0  0  0  0  0  0  0  0  0  0  0
    1.2671    3.7894   -0.0000 C   0  0  0  0  0  0  0  0  0  0  0  0
   -1.3381    3.7894   -0.0000 C   0  0  0  0  0  0  0  0  0  0  0  0
    3.8605    2.2974   -0.0000 C   0  0  0  0  0  0  0  0  0  0  0  0
   -0.0474    4.5473   -0.0000 C   0  0  0  0  0  0  0  0  0  0  0  0
    5.1513    1.5631   -0.0000 C   0  0  0  0  0  0  0  0  0  0  0  0
   -0.0592    6.0631   -0.0000 Cl  0  0  0  0  0  0  0  0  0  0  0  0
    6.4421    2.3210   -0.0000 C   0  0  0  0  0  0  0  0  0  0  0  0
    7.7328    1.5868   -0.0000 N   0  0  0  0  0  0  0  0  0  0  0  0
    9.0236    2.3447   -0.0000 C   0  0  0  0  0  0  0  0  0  0  0  0
    7.7210    0.0947   -0.0000 C   0  0  0  0  0  0  0  0  0  0  0  0
   10.3144    1.6105   -0.0000 C   0  0  0  0  0  0  0  0  0  0  0  0
    9.0118   -0.6513   -0.0000 C   0  0  0  0  0  0  0  0  0  0  0  0
   10.3026    0.1184   -0.0000 N   0  0  0  0  0  0  0  0  0  0  0  0
  1  2  1  0
  2  3  2  0
  2  4  1  0
  3  5  1  0
  3  6  1  0
  4  7  2  0
  5  8  1  0
  6  9  2  0
  8 10  1  0
  9 11  1  0
 10 12  1  0
 12 13  1  0
 13 14  1  0
 13 15  1  0
 14 16  1  0
 15 17  1  0
 16 18  1  0
  7  9  1  0
 17 18  1  0
M  END
>  <MolRegNo>  (1) 
314172

>  <m>  (1) 
=

>  <Value>  (1) 
2100

>  <Unit>  (1) 
nM

>  <Type>  (1) 
IC50

>  <pValue>  (1) 
5.68

>  <Ligand Efficiency>  (1) 
0

>  <Binding Efficiency>  (1) 
0

>  <Surface Efficiency>  (1) 
0

>  <Assay Index>  (1) 
237541

>  <Assay Category>  (1) 


>  <Assay Organism>  (1) 


>  <Target ID>  (1) 
11365

>  <Target Name>  (1) 
Cytochrome P450 2D6

>  <Target Organism>  (1) 
Homo sapiens

>  <Target Description>  (1) 
Target is a single protein chain

>  <Sequence Accession>  (1) 
P10635

>  <Reference>  (1) 
J Med Chem 47 (22), 5340-5346 (2004)

>  <Pubmed ID>  (1) 
15481972

>  <DOI>  (1) 
10.1021/jm049934e

$$$$
