4wnv_ligand_66
     RDKit          2D

 16 16  0  0  0  0  0  0  0  0999 V2000
    0.0000   -0.0000   -0.0000 O   0  0  0  0  0  0  0  0  0  0  0  0
   -1.3080    0.7491   -0.0000 N   0  0  0  0  0  0  0  0  0  0  0  0
   -2.6160    0.0119   -0.0000 C   0  0  0  0  0  0  0  0  0  0  0  0
   -3.9360    0.7610   -0.0000 N   0  0  0  0  0  0  0  0  0  0  0  0
   -5.2440    0.0238   -0.0000 C   0  0  0  0  0  0  0  0  0  0  0  0
   -5.2559   -1.4745   -0.0000 C   0  0  0  0  0  0  0  0  0  0  0  0
   -6.5520    0.7848   -0.0000 C   0  0  0  0  0  0  0  0  0  0  0  0
   -6.5639   -2.2117   -0.0000 C   0  0  0  0  0  0  0  0  0  0  0  0
   -7.8600    0.0476   -0.0000 C   0  0  0  0  0  0  0  0  0  0  0  0
   -7.8719   -1.4507   -0.0000 C   0  0  0  0  0  0  0  0  0  0  0  0
   -9.1799   -2.1880   -0.0000 C   0  0  0  0  0  0  0  0  0  0  0  0
   -9.1799   -3.6506   -0.0000 C   0  0  0  0  0  0  0  0  0  0  0  0
  -10.4880   -4.3878   -0.0000 C   0  0  0  0  0  0  0  0  0  0  0  0
  -10.4998   -5.8742   -0.0000 C   0  0  0  0  0  0  0  0  0  0  0  0
  -11.8079   -6.6233   -0.0000 C   0  0  0  0  0  0  0  0  0  0  0  0
  -11.8079   -8.1097   -0.0000 C   0  0  0  0  0  0  0  0  0  0  0  0
  1  2  1  0
  2  3  2  0
  3  4  1  0
  4  5  1  0
  5  6  2  0
  5  7  1  0
  6  8  1  0
  7  9  2  0
  8 10  2  0
 10 11  1  0
 11 12  1  0
 12 13  1  0
 13 14  1  0
 14 15  1  0
 15 16  1  0
  9 10  1  0
M  END
>  <MolRegNo>  (1) 
166196

>  <m>  (1) 
=

>  <Value>  (1) 
32000

>  <Unit>  (1) 
nM

>  <Type>  (1) 
IC50

>  <pValue>  (1) 
4.5

>  <Ligand Efficiency>  (1) 
0

>  <Binding Efficiency>  (1) 
0

>  <Surface Efficiency>  (1) 
0

>  <Assay Index>  (1) 
51644

>  <Assay Category>  (1) 


>  <Assay Organism>  (1) 
Homo sapiens

>  <Target ID>  (1) 
11365

>  <Target Name>  (1) 
Cytochrome P450 2D6

>  <Target Organism>  (1) 
Homo sapiens

>  <Target Description>  (1) 
Target is a single protein chain

>  <Sequence Accession>  (1) 
P10635

>  <Reference>  (1) 
Bioorg Med Chem Lett 11 (23), 2993-2995 (2001)

>  <Pubmed ID>  (1) 
11714595

>  <DOI>  (1) 
10.1016/s0960-894x(01)00614-x

$$$$
