4wnv_ligand_138
     RDKit          2D

 30 32  0  0  0  0  0  0  0  0999 V2000
    0.0000   -0.0000   -0.0000 S   0  0  0  0  0  0  0  0  0  0  0  0
    1.2870    0.7746   -0.0000 O   0  0  0  0  0  0  0  0  0  0  0  0
   -1.3109   -0.7389   -0.0000 O   0  0  0  0  0  0  0  0  0  0  0  0
   -0.0119    1.5135   -0.0000 C   0  0  0  0  0  0  0  0  0  0  0  0
    0.7389   -1.2870   -0.0000 C   0  0  0  0  0  0  0  0  0  0  0  0
   -1.3228    2.2762   -0.0000 C   0  0  0  0  0  0  0  0  0  0  0  0
    1.2751    2.2881   -0.0000 C   0  0  0  0  0  0  0  0  0  0  0  0
   -1.3347    3.8016   -0.0000 C   0  0  0  0  0  0  0  0  0  0  0  0
   -2.6456    1.5373   -0.0000 C   0  0  0  0  0  0  0  0  0  0  0  0
    1.2632    3.8016   -0.0000 C   0  0  0  0  0  0  0  0  0  0  0  0
   -0.0477    4.5643   -0.0000 C   0  0  0  0  0  0  0  0  0  0  0  0
   -0.0715    6.0777   -0.0000 O   0  0  0  0  0  0  0  0  0  0  0  0
    1.2275    6.8523   -0.0000 C   0  0  0  0  0  0  0  0  0  0  0  0
    2.5145    6.1135   -0.0000 C   0  0  0  0  0  0  0  0  0  0  0  0
    2.4907    4.6238   -0.0000 O   0  0  0  0  0  0  0  0  0  0  0  0
    3.8016    6.8762   -0.0000 C   0  0  0  0  0  0  0  0  0  0  0  0
    5.0886    6.1373   -0.0000 N   0  0  0  0  0  0  0  0  0  0  0  0
    6.3757    6.9119   -0.0000 C   0  0  0  0  0  0  0  0  0  0  0  0
    7.6627    7.6865   -0.0000 C   0  0  0  0  0  0  0  0  0  0  0  0
    7.6627    6.1731   -0.0000 C   0  0  0  0  0  0  0  0  0  0  0  0
    6.7570    8.3897   -0.0000 C   0  0  0  0  0  0  0  0  0  0  0  0
    9.1524    7.6985   -0.0000 C   0  0  0  0  0  0  0  0  0  0  0  0
   10.5943    8.1036   -0.0000 N   0  0  0  0  0  0  0  0  0  0  0  0
    9.0928    6.2088   -0.0000 C   0  0  0  0  0  0  0  0  0  0  0  0
   11.3689    6.7928   -0.0000 C   0  0  0  0  0  0  0  0  0  0  0  0
   10.3917    5.6368   -0.0000 C   0  0  0  0  0  0  0  0  0  0  0  0
   12.8347    6.5187   -0.0000 C   0  0  0  0  0  0  0  0  0  0  0  0
   10.8684    4.2306   -0.0000 C   0  0  0  0  0  0  0  0  0  0  0  0
   13.3233    5.1124   -0.0000 C   0  0  0  0  0  0  0  0  0  0  0  0
   12.3461    3.9565   -0.0000 C   0  0  0  0  0  0  0  0  0  0  0  0
  1  2  2  0
  1  3  2  0
  1  4  1  0
  1  5  1  0
  4  6  2  0
  4  7  1  0
  6  8  1  0
  6  9  1  0
  7 10  2  0
  8 11  2  0
 11 12  1  0
 12 13  1  0
 13 14  1  0
 14 15  1  0
 14 16  1  0
 16 17  1  0
 17 18  1  0
 18 19  1  0
 18 20  1  0
 18 21  1  0
 19 22  1  0
 22 23  1  0
 22 24  2  0
 23 25  1  0
 24 26  1  0
 25 27  2  0
 26 28  2  0
 27 29  1  0
 28 30  1  0
 10 11  1  0
 25 26  1  0
 29 30  2  0
M  END
>  <MolRegNo>  (1) 
301405

>  <m>  (1) 
=

>  <Value>  (1) 
40

>  <Unit>  (1) 
nM

>  <Type>  (1) 
IC50

>  <pValue>  (1) 
7.4

>  <Ligand Efficiency>  (1) 
0

>  <Binding Efficiency>  (1) 
0

>  <Surface Efficiency>  (1) 
0

>  <Assay Index>  (1) 
238811

>  <Assay Category>  (1) 


>  <Assay Organism>  (1) 
Homo sapiens

>  <Target ID>  (1) 
11365

>  <Target Name>  (1) 
Cytochrome P450 2D6

>  <Target Organism>  (1) 
Homo sapiens

>  <Target Description>  (1) 
Target is a single protein chain

>  <Sequence Accession>  (1) 
P10635

>  <Reference>  (1) 
Bioorg Med Chem Lett 15 (17), 3816-3820 (2005)

>  <Pubmed ID>  (1) 
15993593

>  <DOI>  (1) 
10.1016/j.bmcl.2005.06.007

$$$$
