4wnv_ligand_631
     RDKit          2D

 21 24  0  0  0  0  0  0  0  0999 V2000
    0.0000   -0.0000   -0.0000 N   0  0  0  0  0  0  0  0  0  0  0  0
   -1.3084   -0.7494   -0.0000 C   0  0  0  0  0  0  0  0  0  0  0  0
   -0.0238    1.5106   -0.0000 C   0  0  0  0  0  0  0  0  0  0  0  0
   -2.6169   -0.0000   -0.0000 C   0  0  0  0  0  0  0  0  0  0  0  0
   -1.3084   -2.2362   -0.0000 C   0  0  0  0  0  0  0  0  0  0  0  0
   -1.3441    2.2600   -0.0000 C   0  0  0  0  0  0  0  0  0  0  0  0
   -2.6406    1.5106   -0.0000 C   0  0  0  0  0  0  0  0  0  0  0  0
   -2.6169   -2.9856   -0.0000 C   0  0  0  0  0  0  0  0  0  0  0  0
   -1.3322   -3.7231   -0.0000 C   0  0  0  0  0  0  0  0  0  0  0  0
   -3.9967   -3.5803   -0.0000 C   0  0  0  0  0  0  0  0  0  0  0  0
   -2.7834   -1.4869   -0.0000 C   0  0  0  0  0  0  0  0  0  0  0  0
   -0.0476   -2.9499   -0.0000 C   0  0  0  0  0  0  0  0  0  0  0  0
   -1.3441   -5.2099   -0.0000 C   0  0  0  0  0  0  0  0  0  0  0  0
   -5.0077   -2.4503   -0.0000 N   0  0  0  0  0  0  0  0  0  0  0  0
   -4.2583   -1.1657   -0.0000 C   0  0  0  0  0  0  0  0  0  0  0  0
    1.2371   -3.6993   -0.0000 C   0  0  0  0  0  0  0  0  0  0  0  0
   -0.0595   -5.9474   -0.0000 C   0  0  0  0  0  0  0  0  0  0  0  0
    1.2252   -5.1980   -0.0000 C   0  0  0  0  0  0  0  0  0  0  0  0
    2.6644   -3.2235   -0.0000 C   0  0  0  0  0  0  0  0  0  0  0  0
    2.6525   -5.6500   -0.0000 N   0  0  0  0  0  0  0  0  0  0  0  0
    3.5447   -4.4368   -0.0000 C   0  0  0  0  0  0  0  0  0  0  0  0
  1  2  2  0
  1  3  1  0
  2  4  1  0
  2  5  1  0
  3  6  2  0
  4  7  2  0
  5  8  1  0
  8  9  1  0
  8 10  1  0
  8 11  1  0
  9 12  2  0
  9 13  1  0
 10 14  1  0
 11 15  1  0
 12 16  1  0
 13 17  2  0
 16 18  2  0
 16 19  1  0
 18 20  1  0
 19 21  2  0
  6  7  1  0
 14 15  1  0
 17 18  1  0
 20 21  1  0
M  END
>  <MolRegNo>  (1) 
515171

>  <m>  (1) 
=

>  <Value>  (1) 
3500

>  <Unit>  (1) 
nM

>  <Type>  (1) 
IC50

>  <pValue>  (1) 
5.46

>  <Ligand Efficiency>  (1) 
0

>  <Binding Efficiency>  (1) 
0

>  <Surface Efficiency>  (1) 
0

>  <Assay Index>  (1) 
342264

>  <Assay Category>  (1) 


>  <Assay Organism>  (1) 


>  <Target ID>  (1) 
11365

>  <Target Name>  (1) 
Cytochrome P450 2D6

>  <Target Organism>  (1) 
Homo sapiens

>  <Target Description>  (1) 
Target is a single protein chain

>  <Sequence Accession>  (1) 
P10635

>  <Reference>  (1) 
Bioorg Med Chem Lett 18 (23), 6062-6066 (2008)

>  <Pubmed ID>  (1) 
18954985

>  <DOI>  (1) 
10.1016/j.bmcl.2008.10.025

$$$$
