4wnv_ligand_910
     RDKit          2D

 27 29  0  0  0  0  0  0  0  0999 V2000
    0.0000   -0.0000   -0.0000 Br  0  0  0  0  0  0  0  0  0  0  0  0
    1.3006   -0.7279   -0.0000 C   0  0  0  0  0  0  0  0  0  0  0  0
    1.3006   -2.2075   -0.0000 C   0  0  0  0  0  0  0  0  0  0  0  0
    2.5774    0.0477   -0.0000 C   0  0  0  0  0  0  0  0  0  0  0  0
    2.5893   -2.9473   -0.0000 C   0  0  0  0  0  0  0  0  0  0  0  0
   -0.0119   -2.9473   -0.0000 C   0  0  0  0  0  0  0  0  0  0  0  0
    3.8780   -0.6921   -0.0000 C   0  0  0  0  0  0  0  0  0  0  0  0
    3.8780   -2.1836   -0.0000 C   0  0  0  0  0  0  0  0  0  0  0  0
   -0.0239   -4.4389   -0.0000 N   0  0  0  0  0  0  0  0  0  0  0  0
   -1.3364   -5.1787   -0.0000 C   0  0  0  0  0  0  0  0  0  0  0  0
    1.2648   -5.1787   -0.0000 C   0  0  0  0  0  0  0  0  0  0  0  0
   -1.3484   -6.6821   -0.0000 C   0  0  0  0  0  0  0  0  0  0  0  0
   -2.6490   -4.4150   -0.0000 C   0  0  0  0  0  0  0  0  0  0  0  0
    1.4200   -6.6702   -0.0000 C   0  0  0  0  0  0  0  0  0  0  0  0
    2.6371   -4.5582   -0.0000 C   0  0  0  0  0  0  0  0  0  0  0  0
   -2.6729   -7.4220   -0.0000 C   0  0  0  0  0  0  0  0  0  0  0  0
   -3.9616   -5.1548   -0.0000 C   0  0  0  0  0  0  0  0  0  0  0  0
    2.8757   -6.9685   -0.0000 N   0  0  0  0  0  0  0  0  0  0  0  0
    3.6394   -5.6560   -0.0000 C   0  0  0  0  0  0  0  0  0  0  0  0
   -2.6848   -8.9135   -0.0000 Cl  0  0  0  0  0  0  0  0  0  0  0  0
   -3.9854   -6.6583   -0.0000 C   0  0  0  0  0  0  0  0  0  0  0  0
    3.4723   -8.3288   -0.0000 S   0  0  0  0  0  0  0  0  0  0  0  0
   -5.2980   -7.3981   -0.0000 C   0  0  0  0  0  0  0  0  0  0  0  0
    2.6967   -9.6175   -0.0000 O   0  0  0  0  0  0  0  0  0  0  0  0
    1.9569   -8.3050   -0.0000 O   0  0  0  0  0  0  0  0  0  0  0  0
    4.9639   -8.4720   -0.0000 C   0  0  0  0  0  0  0  0  0  0  0  0
   -6.6106   -8.1379   -0.0000 N   0  0  0  0  0  0  0  0  0  0  0  0
  1  2  1  0
  2  3  2  0
  2  4  1  0
  3  5  1  0
  3  6  1  0
  4  7  2  0
  5  8  2  0
  6  9  1  0
  9 10  1  0
 11  9  1  1
 10 12  2  0
 10 13  1  0
 11 14  1  0
 11 15  1  0
 12 16  1  0
 13 17  2  0
 14 18  1  0
 15 19  1  0
 16 20  1  0
 16 21  2  0
 18 22  1  0
 21 23  1  0
 22 24  2  0
 22 25  2  0
 22 26  1  0
 23 27  3  0
  7  8  1  0
 17 21  1  0
 18 19  1  0
M  END
>  <MolRegNo>  (1) 
590202

>  <m>  (1) 
=

>  <Value>  (1) 
31000

>  <Unit>  (1) 
nM

>  <Type>  (1) 
IC50

>  <pValue>  (1) 
4.51

>  <Ligand Efficiency>  (1) 
0

>  <Binding Efficiency>  (1) 
0

>  <Surface Efficiency>  (1) 
0

>  <Assay Index>  (1) 
452357

>  <Assay Category>  (1) 


>  <Assay Organism>  (1) 


>  <Target ID>  (1) 
11365

>  <Target Name>  (1) 
Cytochrome P450 2D6

>  <Target Organism>  (1) 
Homo sapiens

>  <Target Description>  (1) 
Target is a single protein chain

>  <Sequence Accession>  (1) 
P10635

>  <Reference>  (1) 
Bioorg Med Chem Lett 20 (1), 371-374 (2010)

>  <Pubmed ID>  (1) 
19926282

>  <DOI>  (1) 
10.1016/j.bmcl.2009.10.092

$$$$
