4wnv_ligand_941
     RDKit          2D

 20 23  0  0  1  0  0  0  0  0999 V2000
    0.0000   -0.0000   -0.0000 Cl  0  0  0  0  0  0  0  0  0  0  0  0
   -1.2857    0.7903   -0.0000 C   0  0  0  0  0  0  0  0  0  0  0  0
   -1.2621    2.3000   -0.0000 C   0  0  0  0  0  0  0  0  0  0  0  0
   -2.6067    0.0826   -0.0000 C   0  0  0  0  0  0  0  0  0  0  0  0
    0.0354    3.0313   -0.0000 Cl  0  0  0  0  0  0  0  0  0  0  0  0
   -2.5595    3.0903   -0.0000 C   0  0  0  0  0  0  0  0  0  0  0  0
   -3.8924    0.8728   -0.0000 C   0  0  0  0  0  0  0  0  0  0  0  0
   -3.8806    2.3826   -0.0000 C   0  0  0  0  0  0  0  0  0  0  0  0
   -4.9539   -0.1769   -0.0000 C   0  0  0  0  0  0  0  0  0  0  0  0
   -5.6970   -1.4626   -0.0000 C   0  0  0  0  0  0  0  0  0  0  0  0
   -4.2108   -1.4508   -0.0000 C   0  0  0  0  0  0  0  0  0  0  0  0
   -5.7206    1.1323   -0.0000 C   0  0  0  0  0  0  0  0  0  0  0  0
   -6.1688   -2.8780   -0.0000 C   0  0  0  0  0  0  0  0  0  0  0  0
   -3.7390   -2.8662   -0.0000 C   0  0  0  0  0  0  0  0  0  0  0  0
   -7.2304    1.1323   -0.0000 O   0  0  0  0  0  0  0  0  0  0  0  0
   -4.9539   -3.7390   -0.0000 N   0  0  0  0  0  0  0  0  0  0  0  0
   -7.9970    2.4298   -0.0000 C   0  0  0  0  0  0  0  0  0  0  0  0
   -9.5068    2.4298   -0.0000 C   0  0  0  0  0  0  0  0  0  0  0  0
  -10.8043    1.6867   -0.0000 C   0  0  0  0  0  0  0  0  0  0  0  0
  -10.8161    3.1847   -0.0000 C   0  0  0  0  0  0  0  0  0  0  0  0
  1  2  1  0
  2  3  2  0
  2  4  1  0
  3  5  1  0
  3  6  1  0
  4  7  2  0
  6  8  2  0
  7  9  1  0
  9 10  1  0
  9 11  1  0
  9 12  1  6
 10 13  1  6
 11 14  1  6
 12 15  1  0
 13 16  1  0
 15 17  1  0
 17 18  1  0
 18 19  1  0
 18 20  1  0
  7  8  1  0
 10 11  1  0
 14 16  1  0
 19 20  1  0
M  END
>  <MolRegNo>  (1) 
596970

>  <m>  (1) 
=

>  <Value>  (1) 
1000

>  <Unit>  (1) 
nM

>  <Type>  (1) 
IC50

>  <pValue>  (1) 
6

>  <Ligand Efficiency>  (1) 
0

>  <Binding Efficiency>  (1) 
0

>  <Surface Efficiency>  (1) 
0

>  <Assay Index>  (1) 
459217

>  <Assay Category>  (1) 


>  <Assay Organism>  (1) 
Homo sapiens

>  <Target ID>  (1) 
11365

>  <Target Name>  (1) 
Cytochrome P450 2D6

>  <Target Organism>  (1) 
Homo sapiens

>  <Target Description>  (1) 
Target is a single protein chain

>  <Sequence Accession>  (1) 
P10635

>  <Reference>  (1) 
J Med Chem 53 (6), 2534-2551 (2010)

>  <Pubmed ID>  (1) 
20170186

>  <DOI>  (1) 
10.1021/jm901818u

$$$$
