4wnv_ligand_730
     RDKit          2D

 37 40  0  0  0  0  0  0  0  0999 V2000
    0.0000   -0.0000   -0.0000 S   0  0  0  0  0  0  0  0  0  0  0  0
   -0.4842    1.4290   -0.0000 C   0  0  0  0  0  0  0  0  0  0  0  0
    1.4881    0.0236   -0.0000 C   0  0  0  0  0  0  0  0  0  0  0  0
    0.7086    2.3266   -0.0000 N   0  0  0  0  0  0  0  0  0  0  0  0
   -1.7952    2.1731   -0.0000 N   0  0  0  0  0  0  0  0  0  0  0  0
    1.9251    1.4645   -0.0000 C   0  0  0  0  0  0  0  0  0  0  0  0
    2.3621   -1.1692   -0.0000 C   0  0  0  0  0  0  0  0  0  0  0  0
   -1.8188    3.6848   -0.0000 C   0  0  0  0  0  0  0  0  0  0  0  0
    3.3305    1.9487   -0.0000 C   0  0  0  0  0  0  0  0  0  0  0  0
    3.8384   -0.9921   -0.0000 O   0  0  0  0  0  0  0  0  0  0  0  0
    1.7479   -2.5274   -0.0000 C   0  0  0  0  0  0  0  0  0  0  0  0
   -0.5433    4.4525   -0.0000 O   0  0  0  0  0  0  0  0  0  0  0  0
   -3.1297    4.4289   -0.0000 N   0  0  0  0  0  0  0  0  0  0  0  0
   -4.4289    3.6848   -0.0000 C   0  0  0  0  0  0  0  0  0  0  0  0
   -5.7516    4.4289   -0.0000 C   0  0  0  0  0  0  0  0  0  0  0  0
   -4.4289    2.2085   -0.0000 C   0  0  0  0  0  0  0  0  0  0  0  0
   -3.1534    2.9526   -0.0000 C   0  0  0  0  0  0  0  0  0  0  0  0
   -7.0508    3.6966   -0.0000 O   0  0  0  0  0  0  0  0  0  0  0  0
   -5.7634    5.9406   -0.0000 C   0  0  0  0  0  0  0  0  0  0  0  0
   -5.7280    1.4645   -0.0000 N   0  0  0  0  0  0  0  0  0  0  0  0
   -7.0508    2.2085   -0.0000 C   0  0  0  0  0  0  0  0  0  0  0  0
   -7.0744    6.6965   -0.0000 N   0  0  0  0  0  0  0  0  0  0  0  0
   -5.7280   -0.0236   -0.0000 C   0  0  0  0  0  0  0  0  0  0  0  0
   -8.3499    1.4645   -0.0000 O   0  0  0  0  0  0  0  0  0  0  0  0
   -8.3735    5.9642   -0.0000 C   0  0  0  0  0  0  0  0  0  0  0  0
   -7.0862    8.2082   -0.0000 C   0  0  0  0  0  0  0  0  0  0  0  0
   -9.6727    6.7201   -0.0000 C   0  0  0  0  0  0  0  0  0  0  0  0
   -8.3853    8.9758   -0.0000 C   0  0  0  0  0  0  0  0  0  0  0  0
   -9.6845    8.2318   -0.0000 C   0  0  0  0  0  0  0  0  0  0  0  0
  -10.9836    5.9878   -0.0000 C   0  0  0  0  0  0  0  0  0  0  0  0
  -12.2945    6.7437   -0.0000 C   0  0  0  0  0  0  0  0  0  0  0  0
  -12.3064    8.2436   -0.0000 C   0  0  0  0  0  0  0  0  0  0  0  0
  -13.5937    5.9996   -0.0000 C   0  0  0  0  0  0  0  0  0  0  0  0
  -13.6173    8.9995   -0.0000 C   0  0  0  0  0  0  0  0  0  0  0  0
  -14.9046    6.7555   -0.0000 C   0  0  0  0  0  0  0  0  0  0  0  0
  -14.9282    8.2672   -0.0000 C   0  0  0  0  0  0  0  0  0  0  0  0
  -16.2392    9.0231   -0.0000 F   0  0  0  0  0  0  0  0  0  0  0  0
  1  2  1  0
  1  3  1  0
  2  4  2  0
  2  5  1  0
  3  6  2  0
  3  7  1  0
  5  8  1  0
  6  9  1  0
  7 10  2  0
  7 11  1  0
  8 12  2  0
  8 13  1  0
 13 14  1  0
 14 15  1  0
 14 16  1  0
 14 17  1  0
 15 18  1  0
 15 19  1  0
 16 20  1  0
 18 21  1  0
 19 22  1  0
 20 23  1  0
 21 24  2  0
 22 25  1  0
 22 26  1  0
 25 27  1  0
 26 28  1  0
 27 29  1  0
 27 30  1  1
 30 31  1  0
 31 32  2  0
 31 33  1  0
 32 34  1  0
 33 35  2  0
 34 36  2  0
 36 37  1  0
  4  6  1  0
 20 21  1  0
 28 29  1  0
 35 36  1  0
M  END
>  <MolRegNo>  (1) 
473628

>  <m>  (1) 
=

>  <Value>  (1) 
21000

>  <Unit>  (1) 
nM

>  <Type>  (1) 
IC50

>  <pValue>  (1) 
4.68

>  <Ligand Efficiency>  (1) 
0

>  <Binding Efficiency>  (1) 
0

>  <Surface Efficiency>  (1) 
0

>  <Assay Index>  (1) 
409097

>  <Assay Category>  (1) 


>  <Assay Organism>  (1) 


>  <Target ID>  (1) 
11365

>  <Target Name>  (1) 
Cytochrome P450 2D6

>  <Target Organism>  (1) 
Homo sapiens

>  <Target Description>  (1) 
Target is a single protein chain

>  <Sequence Accession>  (1) 
P10635

>  <Reference>  (1) 
Bioorg Med Chem Lett 19 (1), 96-99 (2009)

>  <Pubmed ID>  (1) 
19010676

>  <DOI>  (1) 
10.1016/j.bmcl.2008.11.002

$$$$
