4wnv_ligand_352
     RDKit          2D

 25 28  0  0  1  0  0  0  0  0999 V2000
    0.0000   -0.0000   -0.0000 F   0  0  0  0  0  0  0  0  0  0  0  0
    0.7226   -1.3031   -0.0000 C   0  0  0  0  0  0  0  0  0  0  0  0
   -0.0592   -2.5706   -0.0000 C   0  0  0  0  0  0  0  0  0  0  0  0
    2.2152   -1.3149   -0.0000 C   0  0  0  0  0  0  0  0  0  0  0  0
   -1.5637   -2.5350   -0.0000 C   0  0  0  0  0  0  0  0  0  0  0  0
    0.6515   -3.8736   -0.0000 C   0  0  0  0  0  0  0  0  0  0  0  0
    2.9378   -2.6180   -0.0000 C   0  0  0  0  0  0  0  0  0  0  0  0
   -2.3574   -3.8144   -0.0000 C   0  0  0  0  0  0  0  0  0  0  0  0
   -2.3100   -1.1964   -0.0000 C   0  0  0  0  0  0  0  0  0  0  0  0
    2.1441   -3.8855   -0.0000 C   0  0  0  0  0  0  0  0  0  0  0  0
    4.4304   -2.6180   -0.0000 N   0  0  0  0  0  0  0  0  0  0  0  0
   -3.8736   -3.7789   -0.0000 N   0  0  0  0  0  0  0  0  0  0  0  0
   -3.8263   -1.1609   -0.0000 C   0  0  0  0  0  0  0  0  0  0  0  0
    5.3189   -1.4097   -0.0000 C   0  0  0  0  0  0  0  0  0  0  0  0
    5.2833   -3.8381   -0.0000 C   0  0  0  0  0  0  0  0  0  0  0  0
   -4.6081   -2.4521   -0.0000 C   0  0  0  0  0  0  0  0  0  0  0  0
    4.8687    0.0355   -0.0000 O   0  0  0  0  0  0  0  0  0  0  0  0
    6.7285   -1.8835   -0.0000 O   0  0  0  0  0  0  0  0  0  0  0  0
    6.7048   -3.3880   -0.0000 C   0  0  0  0  0  0  0  0  0  0  0  0
    7.8895   -4.2764   -0.0000 C   0  0  0  0  0  0  0  0  0  0  0  0
    9.2636   -3.6723   -0.0000 N   0  0  0  0  0  0  0  0  0  0  0  0
    9.5834   -2.1915   -0.0000 N   0  0  0  0  0  0  0  0  0  0  0  0
   10.5430   -4.4304   -0.0000 C   0  0  0  0  0  0  0  0  0  0  0  0
   11.0642   -2.0494   -0.0000 N   0  0  0  0  0  0  0  0  0  0  0  0
   11.6683   -3.4353   -0.0000 C   0  0  0  0  0  0  0  0  0  0  0  0
  1  2  1  0
  2  3  2  0
  2  4  1  0
  3  5  1  0
  3  6  1  0
  4  7  2  0
  5  8  2  0
  5  9  1  0
  6 10  2  0
  7 11  1  0
  8 12  1  0
  9 13  2  0
 11 14  1  0
 11 15  1  0
 12 16  2  0
 14 17  2  0
 14 18  1  0
 15 19  1  0
 19 20  1  1
 20 21  1  0
 21 22  1  0
 21 23  1  0
 22 24  2  0
 23 25  2  0
  7 10  1  0
 13 16  1  0
 18 19  1  0
 24 25  1  0
M  END
>  <MolRegNo>  (1) 
388533

>  <m>  (1) 
=

>  <Value>  (1) 
6600

>  <Unit>  (1) 
nM

>  <Type>  (1) 
IC50

>  <pValue>  (1) 
5.18

>  <Ligand Efficiency>  (1) 
0

>  <Binding Efficiency>  (1) 
0

>  <Surface Efficiency>  (1) 
0

>  <Assay Index>  (1) 
294825

>  <Assay Category>  (1) 


>  <Assay Organism>  (1) 
Homo sapiens

>  <Target ID>  (1) 
11365

>  <Target Name>  (1) 
Cytochrome P450 2D6

>  <Target Organism>  (1) 
Homo sapiens

>  <Target Description>  (1) 
Target is a single protein chain

>  <Sequence Accession>  (1) 
P10635

>  <Reference>  (1) 
J Med Chem 50 (20), 4868-4881 (2007)

>  <Pubmed ID>  (1) 
17722903

>  <DOI>  (1) 
10.1021/jm070428+

$$$$
