4wnv_ligand_327
     RDKit          2D

 29 31  0  0  0  0  0  0  0  0999 V2000
    0.0000   -0.0000   -0.0000 Cl  0  0  0  0  0  0  0  0  0  0  0  0
    1.2877    0.7631   -0.0000 C   0  0  0  0  0  0  0  0  0  0  0  0
    2.5754    0.0238   -0.0000 C   0  0  0  0  0  0  0  0  0  0  0  0
    1.2758    2.2773   -0.0000 C   0  0  0  0  0  0  0  0  0  0  0  0
    3.8749    0.7869   -0.0000 C   0  0  0  0  0  0  0  0  0  0  0  0
    2.5634    3.0403   -0.0000 C   0  0  0  0  0  0  0  0  0  0  0  0
    5.1626    0.0477   -0.0000 N   0  0  0  0  0  0  0  0  0  0  0  0
    3.8630    2.3130   -0.0000 C   0  0  0  0  0  0  0  0  0  0  0  0
    6.4503    0.8108   -0.0000 C   0  0  0  0  0  0  0  0  0  0  0  0
    6.4265    2.3250   -0.0000 N   0  0  0  0  0  0  0  0  0  0  0  0
    7.7380    0.0715   -0.0000 N   0  0  0  0  0  0  0  0  0  0  0  0
    7.7141    3.1000   -0.0000 C   0  0  0  0  0  0  0  0  0  0  0  0
    9.0256    0.8346   -0.0000 C   0  0  0  0  0  0  0  0  0  0  0  0
    9.0137    2.3607   -0.0000 C   0  0  0  0  0  0  0  0  0  0  0  0
    7.6903    4.6142   -0.0000 C   0  0  0  0  0  0  0  0  0  0  0  0
   10.3014    3.1238   -0.0000 C   0  0  0  0  0  0  0  0  0  0  0  0
    6.1761    4.6022   -0.0000 F   0  0  0  0  0  0  0  0  0  0  0  0
    9.1806    4.6380   -0.0000 F   0  0  0  0  0  0  0  0  0  0  0  0
    7.6664    6.1284   -0.0000 F   0  0  0  0  0  0  0  0  0  0  0  0
   10.2895    4.6380   -0.0000 O   0  0  0  0  0  0  0  0  0  0  0  0
   11.5891    2.3846   -0.0000 N   0  0  0  0  0  0  0  0  0  0  0  0
   12.8768    3.1477   -0.0000 C   0  0  0  0  0  0  0  0  0  0  0  0
   14.1644    2.4084   -0.0000 C   0  0  0  0  0  0  0  0  0  0  0  0
   14.1406    3.9226   -0.0000 O   0  0  0  0  0  0  0  0  0  0  0  0
   14.1525    0.9181   -0.0000 C   0  0  0  0  0  0  0  0  0  0  0  0
   15.4402    3.1834   -0.0000 C   0  0  0  0  0  0  0  0  0  0  0  0
   15.4402    0.1788   -0.0000 C   0  0  0  0  0  0  0  0  0  0  0  0
   16.7279    2.4561   -0.0000 C   0  0  0  0  0  0  0  0  0  0  0  0
   16.7279    0.9419   -0.0000 C   0  0  0  0  0  0  0  0  0  0  0  0
  1  2  1  0
  2  3  2  0
  2  4  1  0
  3  5  1  0
  4  6  2  0
  5  7  1  0
  5  8  2  0
  7  9  1  0
  9 10  2  0
  9 11  1  0
 10 12  1  0
 11 13  2  0
 12 14  2  0
 12 15  1  0
 14 16  1  0
 15 17  1  0
 15 18  1  0
 15 19  1  0
 16 20  2  0
 16 21  1  0
 21 22  1  0
 22 23  1  0
 23 24  1  0
 23 25  1  0
 23 26  1  0
 25 27  1  0
 26 28  1  0
 27 29  1  0
  6  8  1  0
 13 14  1  0
 28 29  1  0
M  END
>  <MolRegNo>  (1) 
378613

>  <m>  (1) 
=

>  <Value>  (1) 
13000

>  <Unit>  (1) 
nM

>  <Type>  (1) 
IC50

>  <pValue>  (1) 
4.89

>  <Ligand Efficiency>  (1) 
0

>  <Binding Efficiency>  (1) 
0

>  <Surface Efficiency>  (1) 
0

>  <Assay Index>  (1) 
285319

>  <Assay Category>  (1) 


>  <Assay Organism>  (1) 
Homo sapiens

>  <Target ID>  (1) 
11365

>  <Target Name>  (1) 
Cytochrome P450 2D6

>  <Target Organism>  (1) 
Homo sapiens

>  <Target Description>  (1) 
Target is a single protein chain

>  <Sequence Accession>  (1) 
P10635

>  <Reference>  (1) 
J Med Chem 50 (11), 2597-2600 (2007)

>  <Pubmed ID>  (1) 
17477516

>  <DOI>  (1) 
10.1021/jm061195+

$$$$
