4wnv_ligand_195
     RDKit          2D

 29 31  0  0  1  0  0  0  0  0999 V2000
    0.0000   -0.0000   -0.0000 O   0  0  0  0  0  0  0  0  0  0  0  0
   -0.0120   -1.4820   -0.0000 C   0  0  0  0  0  0  0  0  0  0  0  0
    1.2669   -2.2231   -0.0000 N   0  0  0  0  0  0  0  0  0  0  0  0
   -1.3147   -2.2231   -0.0000 C   0  0  0  0  0  0  0  0  0  0  0  0
    2.5458   -1.4581   -0.0000 C   0  0  0  0  0  0  0  0  0  0  0  0
    1.2550   -3.7051   -0.0000 C   0  0  0  0  0  0  0  0  0  0  0  0
   -2.6294   -1.4581   -0.0000 C   0  0  0  0  0  0  0  0  0  0  0  0
    2.5338    0.0478   -0.0000 C   0  0  0  0  0  0  0  0  0  0  0  0
    3.8366   -2.1992   -0.0000 C   0  0  0  0  0  0  0  0  0  0  0  0
   -3.9441   -2.1992   -0.0000 C   0  0  0  0  0  0  0  0  0  0  0  0
   -2.6414    0.0478   -0.0000 C   0  0  0  0  0  0  0  0  0  0  0  0
    1.2311    0.7888   -0.0000 C   0  0  0  0  0  0  0  0  0  0  0  0
    3.8246    0.8127   -0.0000 C   0  0  0  0  0  0  0  0  0  0  0  0
    5.1154   -1.4342   -0.0000 N   0  0  0  0  0  0  0  0  0  0  0  0
   -5.2469   -1.4342   -0.0000 C   0  0  0  0  0  0  0  0  0  0  0  0
   -3.9561    0.8127   -0.0000 C   0  0  0  0  0  0  0  0  0  0  0  0
    1.2191    2.2948   -0.0000 C   0  0  0  0  0  0  0  0  0  0  0  0
    3.8127    2.3187   -0.0000 C   0  0  0  0  0  0  0  0  0  0  0  0
    6.4660   -2.0199   -0.0000 C   0  0  0  0  0  0  0  0  0  0  0  0
    5.2469    0.0598   -0.0000 C   0  0  0  0  0  0  0  0  0  0  0  0
   -5.2350    0.0956   -0.0000 C   0  0  0  0  0  0  0  0  0  0  0  0
    2.4980    3.0717   -0.0000 C   0  0  0  0  0  0  0  0  0  0  0  0
    7.4580   -0.8964   -0.0000 C   0  0  0  0  0  0  0  0  0  0  0  0
    6.7051    0.3944   -0.0000 C   0  0  0  0  0  0  0  0  0  0  0  0
   -6.5616    0.8366   -0.0000 C   0  0  0  0  0  0  0  0  0  0  0  0
   -6.6094    2.3426   -0.0000 N   0  0  0  0  0  0  0  0  0  0  0  0
   -7.9242    3.0836   -0.0000 C   0  0  0  0  0  0  0  0  0  0  0  0
   -9.2150    2.3306   -0.0000 O   0  0  0  0  0  0  0  0  0  0  0  0
   -7.9720    4.5896   -0.0000 C   0  0  0  0  0  0  0  0  0  0  0  0
  1  2  2  0
  2  3  1  0
  2  4  1  0
  5  3  1  0
  3  6  1  0
  4  7  1  0
  5  8  1  0
  5  9  1  1
  7 10  2  0
  7 11  1  0
  8 12  2  0
  8 13  1  0
  9 14  1  0
 10 15  1  0
 11 16  2  0
 12 17  1  0
 13 18  2  0
 14 19  1  0
 14 20  1  0
 15 21  2  0
 17 22  2  0
 19 23  1  0
 20 24  1  0
 21 25  1  0
 25 26  1  0
 26 27  1  0
 27 28  2  0
 27 29  1  0
 16 21  1  0
 18 22  1  0
 23 24  1  0
M  END
>  <MolRegNo>  (1) 
319933

>  <m>  (1) 
=

>  <Value>  (1) 
1108

>  <Unit>  (1) 
nM

>  <Type>  (1) 
IC50

>  <pValue>  (1) 
5.96

>  <Ligand Efficiency>  (1) 
0

>  <Binding Efficiency>  (1) 
0

>  <Surface Efficiency>  (1) 
0

>  <Assay Index>  (1) 
238842

>  <Assay Category>  (1) 


>  <Assay Organism>  (1) 
Homo sapiens

>  <Target ID>  (1) 
11365

>  <Target Name>  (1) 
Cytochrome P450 2D6

>  <Target Organism>  (1) 
Homo sapiens

>  <Target Description>  (1) 
Target is a single protein chain

>  <Sequence Accession>  (1) 
P10635

>  <Reference>  (1) 
Bioorg Med Chem Lett 15 (10), 2647-2652 (2005)

>  <Pubmed ID>  (1) 
15863335

>  <DOI>  (1) 
10.1016/j.bmcl.2005.03.020

$$$$
