4wnv_ligand_771
     RDKit          2D

 28 30  0  0  0  0  0  0  0  0999 V2000
    0.0000   -0.0000   -0.0000 O   0  0  0  0  0  0  0  0  0  0  0  0
    0.7425   -1.2934   -0.0000 C   0  0  0  0  0  0  0  0  0  0  0  0
    2.2395   -1.4371   -0.0000 N   0  0  0  0  0  0  0  0  0  0  0  0
    0.1198   -2.6586   -0.0000 N   0  0  0  0  0  0  0  0  0  0  0  0
    2.5389   -2.8981   -0.0000 C   0  0  0  0  0  0  0  0  0  0  0  0
    1.2335   -3.6526   -0.0000 C   0  0  0  0  0  0  0  0  0  0  0  0
    3.8322   -3.6406   -0.0000 C   0  0  0  0  0  0  0  0  0  0  0  0
    1.2215   -5.1616   -0.0000 C   0  0  0  0  0  0  0  0  0  0  0  0
    5.1256   -2.8742   -0.0000 O   0  0  0  0  0  0  0  0  0  0  0  0
    3.8203   -5.1496   -0.0000 C   0  0  0  0  0  0  0  0  0  0  0  0
    2.5149   -5.9041   -0.0000 C   0  0  0  0  0  0  0  0  0  0  0  0
    6.4190   -3.6167   -0.0000 C   0  0  0  0  0  0  0  0  0  0  0  0
    7.7124   -2.8502   -0.0000 C   0  0  0  0  0  0  0  0  0  0  0  0
    7.7004   -1.3293   -0.0000 O   0  0  0  0  0  0  0  0  0  0  0  0
    9.0058   -3.5927   -0.0000 C   0  0  0  0  0  0  0  0  0  0  0  0
   10.2992   -2.8263   -0.0000 N   0  0  0  0  0  0  0  0  0  0  0  0
   11.5926   -3.5688   -0.0000 C   0  0  0  0  0  0  0  0  0  0  0  0
   12.8859   -2.8023   -0.0000 C   0  0  0  0  0  0  0  0  0  0  0  0
   10.8141   -4.8622   -0.0000 C   0  0  0  0  0  0  0  0  0  0  0  0
   12.3231   -4.8622   -0.0000 C   0  0  0  0  0  0  0  0  0  0  0  0
   14.1793   -3.5448   -0.0000 C   0  0  0  0  0  0  0  0  0  0  0  0
   14.1673   -5.0418   -0.0000 C   0  0  0  0  0  0  0  0  0  0  0  0
   15.4607   -2.7664   -0.0000 C   0  0  0  0  0  0  0  0  0  0  0  0
   15.4607   -5.7843   -0.0000 C   0  0  0  0  0  0  0  0  0  0  0  0
   16.7541   -3.4969   -0.0000 C   0  0  0  0  0  0  0  0  0  0  0  0
   16.7541   -5.0179   -0.0000 C   0  0  0  0  0  0  0  0  0  0  0  0
   18.0595   -5.7603   -0.0000 O   0  0  0  0  0  0  0  0  0  0  0  0
   19.3529   -4.9819   -0.0000 C   0  0  0  0  0  0  0  0  0  0  0  0
  1  2  2  0
  2  3  1  0
  2  4  1  0
  3  5  1  0
  4  6  1  0
  5  7  2  0
  6  8  2  0
  7  9  1  0
  7 10  1  0
  8 11  1  0
  9 12  1  0
 12 13  1  0
 13 14  1  1
 13 15  1  0
 15 16  1  0
 16 17  1  0
 17 18  1  0
 17 19  1  0
 17 20  1  0
 18 21  1  0
 21 22  2  0
 21 23  1  0
 22 24  1  0
 23 25  2  0
 24 26  2  0
 26 27  1  0
 27 28  1  0
  5  6  1  0
 10 11  2  0
 25 26  1  0
M  END
>  <MolRegNo>  (1) 
500006

>  <m>  (1) 
=

>  <Value>  (1) 
1260

>  <Unit>  (1) 
nM

>  <Type>  (1) 
IC50

>  <pValue>  (1) 
5.9

>  <Ligand Efficiency>  (1) 
0

>  <Binding Efficiency>  (1) 
0

>  <Surface Efficiency>  (1) 
0

>  <Assay Index>  (1) 
368882

>  <Assay Category>  (1) 


>  <Assay Organism>  (1) 


>  <Target ID>  (1) 
11365

>  <Target Name>  (1) 
Cytochrome P450 2D6

>  <Target Organism>  (1) 
Homo sapiens

>  <Target Description>  (1) 
Target is a single protein chain

>  <Sequence Accession>  (1) 
P10635

>  <Reference>  (1) 
J Med Chem 52 (13), 3982-3993 (2009)

>  <Pubmed ID>  (1) 
19492813

>  <DOI>  (1) 
10.1021/jm900364m

$$$$
