4wnv_ligand_68
     RDKit          2D

 10 11  0  0  0  0  0  0  0  0999 V2000
    0.0000   -0.0000   -0.0000 N   0  0  0  0  0  0  0  0  0  0  0  0
   -0.8944    1.2186   -0.0000 N   0  0  0  0  0  0  0  0  0  0  0  0
   -0.8944   -1.2075   -0.0000 N   0  0  0  0  0  0  0  0  0  0  0  0
   -2.3255    0.7714   -0.0000 C   0  0  0  0  0  0  0  0  0  0  0  0
   -0.4360   -2.6050   -0.0000 N   0  0  0  0  0  0  0  0  0  0  0  0
   -2.3255   -0.7379   -0.0000 C   0  0  0  0  0  0  0  0  0  0  0  0
   -3.6224    1.5317   -0.0000 C   0  0  0  0  0  0  0  0  0  0  0  0
   -3.6224   -1.4758   -0.0000 C   0  0  0  0  0  0  0  0  0  0  0  0
   -4.9193    0.7938   -0.0000 C   0  0  0  0  0  0  0  0  0  0  0  0
   -4.9193   -0.7155   -0.0000 C   0  0  0  0  0  0  0  0  0  0  0  0
  1  2  2  0
  1  3  1  0
  2  4  1  0
  3  5  1  0
  3  6  1  0
  4  7  2  0
  6  8  2  0
  7  9  1  0
  8 10  1  0
  4  6  1  0
  9 10  2  0
M  END
>  <MolRegNo>  (1) 
166277

>  <m>  (1) 
=

>  <Value>  (1) 
10500

>  <Unit>  (1) 
nM

>  <Type>  (1) 
IC50

>  <pValue>  (1) 
4.98

>  <Ligand Efficiency>  (1) 
0

>  <Binding Efficiency>  (1) 
0

>  <Surface Efficiency>  (1) 
0

>  <Assay Index>  (1) 
51644

>  <Assay Category>  (1) 


>  <Assay Organism>  (1) 
Homo sapiens

>  <Target ID>  (1) 
11365

>  <Target Name>  (1) 
Cytochrome P450 2D6

>  <Target Organism>  (1) 
Homo sapiens

>  <Target Description>  (1) 
Target is a single protein chain

>  <Sequence Accession>  (1) 
P10635

>  <Reference>  (1) 
Bioorg Med Chem Lett 11 (23), 2993-2995 (2001)

>  <Pubmed ID>  (1) 
11714595

>  <DOI>  (1) 
10.1016/s0960-894x(01)00614-x

$$$$
