4wnv_ligand_665
     RDKit          2D

 34 39  0  0  1  0  0  0  0  0999 V2000
    0.0000   -0.0000   -0.0000 S   0  0  0  0  0  0  0  0  0  0  0  0
   -1.2380   -0.8503   -0.0000 C   0  0  0  0  0  0  0  0  0  0  0  0
   -0.4502    1.4381   -0.0000 C   0  0  0  0  0  0  0  0  0  0  0  0
   -2.4510    0.0625   -0.0000 N   0  0  0  0  0  0  0  0  0  0  0  0
   -1.2755   -2.3384   -0.0000 C   0  0  0  0  0  0  0  0  0  0  0  0
   -1.9633    1.4756   -0.0000 C   0  0  0  0  0  0  0  0  0  0  0  0
   -2.6010   -3.0512   -0.0000 C   0  0  0  0  0  0  0  0  0  0  0  0
    0.0000   -3.0887   -0.0000 C   0  0  0  0  0  0  0  0  0  0  0  0
   -3.9016   -2.2759   -0.0000 C   0  0  0  0  0  0  0  0  0  0  0  0
   -2.6386   -4.5393   -0.0000 C   0  0  0  0  0  0  0  0  0  0  0  0
   -0.0375   -4.5768   -0.0000 C   0  0  0  0  0  0  0  0  0  0  0  0
   -3.8891   -0.7628   -0.0000 O   0  0  0  0  0  0  0  0  0  0  0  0
   -5.2271   -2.9887   -0.0000 N   0  0  0  0  0  0  0  0  0  0  0  0
   -1.3630   -5.2896   -0.0000 C   0  0  0  0  0  0  0  0  0  0  0  0
   -6.5276   -2.2134   -0.0000 C   0  0  0  0  0  0  0  0  0  0  0  0
   -7.7406   -1.9758   -0.0000 C   0  0  0  0  0  0  0  0  0  0  0  0
   -7.4780   -1.0254   -0.0000 C   0  0  0  0  0  0  0  0  0  0  0  0
   -9.2912   -2.8261   -0.0000 C   0  0  0  0  0  0  0  0  0  0  0  0
   -8.9536   -1.8632   -0.0000 C   0  0  0  0  0  0  0  0  0  0  0  0
  -10.2416   -1.6507   -0.0000 N   0  0  0  0  0  0  0  0  0  0  0  0
   -9.4913   -4.4018   -0.0000 C   0  0  0  0  0  0  0  0  0  0  0  0
   -8.8410   -3.2513   -0.0000 C   0  0  0  0  0  0  0  0  0  0  0  0
  -11.5546   -0.8879   -0.0000 C   0  0  0  0  0  0  0  0  0  0  0  0
  -11.5671    0.6252   -0.0000 C   0  0  0  0  0  0  0  0  0  0  0  0
  -10.2791    1.3881   -0.0000 C   0  0  0  0  0  0  0  0  0  0  0  0
  -12.8801    1.3881   -0.0000 C   0  0  0  0  0  0  0  0  0  0  0  0
  -10.2916    2.9012   -0.0000 C   0  0  0  0  0  0  0  0  0  0  0  0
  -12.8926    2.9012   -0.0000 C   0  0  0  0  0  0  0  0  0  0  0  0
  -11.6046    3.6640   -0.0000 C   0  0  0  0  0  0  0  0  0  0  0  0
   -9.0036    3.6640   -0.0000 C   0  0  0  0  0  0  0  0  0  0  0  0
  -11.6171    5.1771   -0.0000 C   0  0  0  0  0  0  0  0  0  0  0  0
   -9.0161    5.1771   -0.0000 C   0  0  0  0  0  0  0  0  0  0  0  0
  -10.3291    5.9399   -0.0000 C   0  0  0  0  0  0  0  0  0  0  0  0
  -10.3416    7.4530   -0.0000 F   0  0  0  0  0  0  0  0  0  0  0  0
  1  2  1  0
  1  3  1  0
  2  4  2  0
  2  5  1  0
  3  6  2  0
  5  7  1  0
  5  8  2  0
  7  9  1  0
  7 10  2  0
  8 11  1  0
  9 12  2  0
  9 13  1  0
 10 14  1  0
 15 13  1  1
 15 16  1  0
 15 17  1  0
 18 16  1  6
 19 17  1  1
 18 20  1  0
 18 21  1  0
 19 22  1  0
 20 23  1  0
 23 24  1  0
 24 25  2  0
 24 26  1  0
 25 27  1  0
 26 28  2  0
 27 29  2  0
 27 30  1  0
 29 31  1  0
 30 32  2  0
 31 33  2  0
 33 34  1  0
  4  6  1  0
 11 14  2  0
 19 20  1  0
 21 22  1  0
 28 29  1  0
 32 33  1  0
M  END
>  <MolRegNo>  (1) 
1594456

>  <m>  (1) 
=

>  <Value>  (1) 
2400

>  <Unit>  (1) 
nM

>  <Type>  (1) 
IC50

>  <pValue>  (1) 
5.62

>  <Ligand Efficiency>  (1) 
0

>  <Binding Efficiency>  (1) 
0

>  <Surface Efficiency>  (1) 
0

>  <Assay Index>  (1) 
384135

>  <Assay Category>  (1) 


>  <Assay Organism>  (1) 
Homo sapiens

>  <Target ID>  (1) 
11365

>  <Target Name>  (1) 
Cytochrome P450 2D6

>  <Target Organism>  (1) 
Homo sapiens

>  <Target Description>  (1) 
Target is a single protein chain

>  <Sequence Accession>  (1) 
P10635

>  <Reference>  (1) 
Bioorg Med Chem 16 (18), 8607-8618 (2008)

>  <Pubmed ID>  (1) 
18752960

>  <DOI>  (1) 
10.1016/j.bmc.2008.08.006

$$$$
