4wnv_ligand_70
     RDKit          2D

 14 14  0  0  0  0  0  0  0  0999 V2000
    0.0000   -0.0000   -0.0000 O   0  0  0  0  0  0  0  0  0  0  0  0
   -1.3107    0.7557   -0.0000 N   0  0  0  0  0  0  0  0  0  0  0  0
   -2.6214    0.0236   -0.0000 C   0  0  0  0  0  0  0  0  0  0  0  0
   -3.9439    0.7675   -0.0000 N   0  0  0  0  0  0  0  0  0  0  0  0
   -5.2547    0.0236   -0.0000 C   0  0  0  0  0  0  0  0  0  0  0  0
   -5.2665   -1.4642   -0.0000 C   0  0  0  0  0  0  0  0  0  0  0  0
   -6.5654    0.7793   -0.0000 C   0  0  0  0  0  0  0  0  0  0  0  0
   -6.5772   -2.1963   -0.0000 C   0  0  0  0  0  0  0  0  0  0  0  0
   -3.9676   -2.1963   -0.0000 C   0  0  0  0  0  0  0  0  0  0  0  0
   -7.8761    0.0472   -0.0000 C   0  0  0  0  0  0  0  0  0  0  0  0
   -7.8879   -1.4406   -0.0000 C   0  0  0  0  0  0  0  0  0  0  0  0
   -2.6805   -1.4406   -0.0000 C   0  0  0  0  0  0  0  0  0  0  0  0
   -1.3934   -2.1727   -0.0000 C   0  0  0  0  0  0  0  0  0  0  0  0
   -0.1063   -1.4170   -0.0000 C   0  0  0  0  0  0  0  0  0  0  0  0
  1  2  1  0
  2  3  1  0
  3  4  2  0
  4  5  1  0
  5  6  2  0
  5  7  1  0
  6  8  1  0
  6  9  1  0
  7 10  2  0
  8 11  2  0
  9 12  1  0
 12 13  1  0
 13 14  1  0
 10 11  1  0
M  END
>  <MolRegNo>  (1) 
166168

>  <m>  (1) 
=

>  <Value>  (1) 
32000

>  <Unit>  (1) 
nM

>  <Type>  (1) 
IC50

>  <pValue>  (1) 
4.5

>  <Ligand Efficiency>  (1) 
0

>  <Binding Efficiency>  (1) 
0

>  <Surface Efficiency>  (1) 
0

>  <Assay Index>  (1) 
51644

>  <Assay Category>  (1) 


>  <Assay Organism>  (1) 
Homo sapiens

>  <Target ID>  (1) 
11365

>  <Target Name>  (1) 
Cytochrome P450 2D6

>  <Target Organism>  (1) 
Homo sapiens

>  <Target Description>  (1) 
Target is a single protein chain

>  <Sequence Accession>  (1) 
P10635

>  <Reference>  (1) 
Bioorg Med Chem Lett 11 (23), 2993-2995 (2001)

>  <Pubmed ID>  (1) 
11714595

>  <DOI>  (1) 
10.1016/s0960-894x(01)00614-x

$$$$
