4wnv_ligand_286
     RDKit          2D

 19 22  0  0  1  0  0  0  0  0999 V2000
    0.0000   -0.0000   -0.0000 Br  0  0  0  0  0  0  0  0  0  0  0  0
   -0.9540    1.1852   -0.0000 C   0  0  0  0  0  0  0  0  0  0  0  0
   -0.5782    2.6451   -0.0000 S   0  0  0  0  0  0  0  0  0  0  0  0
   -2.4572    1.1274   -0.0000 C   0  0  0  0  0  0  0  0  0  0  0  0
   -1.8357    3.4690   -0.0000 C   0  0  0  0  0  0  0  0  0  0  0  0
   -3.0064    2.5439   -0.0000 C   0  0  0  0  0  0  0  0  0  0  0  0
   -1.9224    4.9722   -0.0000 N   0  0  0  0  0  0  0  0  0  0  0  0
   -0.7805    5.9117   -0.0000 C   0  0  0  0  0  0  0  0  0  0  0  0
   -3.1799    5.7960   -0.0000 C   0  0  0  0  0  0  0  0  0  0  0  0
    0.6504    5.5359   -0.0000 O   0  0  0  0  0  0  0  0  0  0  0  0
   -1.3298    7.3137   -0.0000 O   0  0  0  0  0  0  0  0  0  0  0  0
   -2.8041    7.2414   -0.0000 C   0  0  0  0  0  0  0  0  0  0  0  0
   -4.1338    7.8774   -0.0000 C   0  0  0  0  0  0  0  0  0  0  0  0
   -3.0932    8.6146   -0.0000 C   0  0  0  0  0  0  0  0  0  0  0  0
   -5.6371    7.2559   -0.0000 C   0  0  0  0  0  0  0  0  0  0  0  0
   -3.9026    9.7275   -0.0000 C   0  0  0  0  0  0  0  0  0  0  0  0
   -4.4229    9.2216   -0.0000 N   0  0  0  0  0  0  0  0  0  0  0  0
   -5.8394    8.6146   -0.0000 C   0  0  0  0  0  0  0  0  0  0  0  0
   -4.3506   10.8116   -0.0000 C   0  0  0  0  0  0  0  0  0  0  0  0
  1  2  1  0
  2  3  1  0
  2  4  2  0
  3  5  1  0
  4  6  1  0
  5  7  1  0
  7  8  1  0
  7  9  1  0
  8 10  2  0
  8 11  1  0
 12  9  1  6
 12 13  1  0
 12 14  1  0
 13 15  1  0
 13 16  1  0
 14 17  1  0
 15 18  1  0
 16 19  1  0
  5  6  2  0
 12 11  1  0
 17 18  1  0
 17 19  1  0
M  END
>  <MolRegNo>  (1) 
353135

>  <m>  (1) 
=

>  <Value>  (1) 
9000

>  <Unit>  (1) 
nM

>  <Type>  (1) 
IC50

>  <pValue>  (1) 
5.05

>  <Ligand Efficiency>  (1) 
0

>  <Binding Efficiency>  (1) 
0

>  <Surface Efficiency>  (1) 
0

>  <Assay Index>  (1) 
264394

>  <Assay Category>  (1) 


>  <Assay Organism>  (1) 
Homo sapiens

>  <Target ID>  (1) 
11365

>  <Target Name>  (1) 
Cytochrome P450 2D6

>  <Target Organism>  (1) 
Homo sapiens

>  <Target Description>  (1) 
Target is a single protein chain

>  <Sequence Accession>  (1) 
P10635

>  <Reference>  (1) 
J Med Chem 49 (14), 4374-4383 (2006)

>  <Pubmed ID>  (1) 
16821797

>  <DOI>  (1) 
10.1021/jm060249c

$$$$
