4wnv_ligand_616
     RDKit          2D

 19 20  0  0  0  0  0  0  0  0999 V2000
    0.0000   -0.0000   -0.0000 S   0  0  0  0  0  0  0  0  0  0  0  0
   -0.2485   -1.4911   -0.0000 C   0  0  0  0  0  0  0  0  0  0  0  0
   -1.3609    0.6982   -0.0000 C   0  0  0  0  0  0  0  0  0  0  0  0
   -1.7515   -1.7041   -0.0000 C   0  0  0  0  0  0  0  0  0  0  0  0
    0.8047   -2.5443   -0.0000 C   0  0  0  0  0  0  0  0  0  0  0  0
   -2.4378   -0.3550   -0.0000 C   0  0  0  0  0  0  0  0  0  0  0  0
    0.0473   -3.8343   -0.0000 C   0  0  0  0  0  0  0  0  0  0  0  0
    2.2958   -2.5325   -0.0000 C   0  0  0  0  0  0  0  0  0  0  0  0
    1.5384   -1.2308   -0.0000 C   0  0  0  0  0  0  0  0  0  0  0  0
   -1.4674   -3.8224   -0.0000 O   0  0  0  0  0  0  0  0  0  0  0  0
    0.7929   -5.1242   -0.0000 N   0  0  0  0  0  0  0  0  0  0  0  0
    3.0295   -3.8224   -0.0000 C   0  0  0  0  0  0  0  0  0  0  0  0
    0.0355   -6.4141   -0.0000 C   0  0  0  0  0  0  0  0  0  0  0  0
    2.2840   -5.1124   -0.0000 C   0  0  0  0  0  0  0  0  0  0  0  0
    4.5207   -3.8106   -0.0000 N   0  0  0  0  0  0  0  0  0  0  0  0
    0.7811   -7.7040   -0.0000 C   0  0  0  0  0  0  0  0  0  0  0  0
    3.0295   -6.4023   -0.0000 C   0  0  0  0  0  0  0  0  0  0  0  0
    0.0237   -8.9940   -0.0000 C   0  0  0  0  0  0  0  0  0  0  0  0
    4.5207   -6.3905   -0.0000 C   0  0  0  0  0  0  0  0  0  0  0  0
  1  2  1  0
  1  3  1  0
  2  4  2  0
  2  5  1  0
  3  6  2  0
  5  7  1  6
  5  8  1  0
  5  9  1  0
  7 10  2  0
  7 11  1  0
  8 12  1  6
 11 13  1  0
 11 14  1  0
 12 15  1  0
 13 16  1  0
 14 17  1  0
 16 18  2  0
 17 19  2  0
  4  6  1  0
  8  9  1  0
M  END
>  <MolRegNo>  (1) 
516939

>  <m>  (1) 
=

>  <Value>  (1) 
6000

>  <Unit>  (1) 
nM

>  <Type>  (1) 
IC50

>  <pValue>  (1) 
5.22

>  <Ligand Efficiency>  (1) 
0

>  <Binding Efficiency>  (1) 
0

>  <Surface Efficiency>  (1) 
0

>  <Assay Index>  (1) 
342101

>  <Assay Category>  (1) 


>  <Assay Organism>  (1) 


>  <Target ID>  (1) 
11365

>  <Target Name>  (1) 
Cytochrome P450 2D6

>  <Target Organism>  (1) 
Homo sapiens

>  <Target Description>  (1) 
Target is a single protein chain

>  <Sequence Accession>  (1) 
P10635

>  <Reference>  (1) 
J Med Chem 51 (22), 7265-7272 (2008)

>  <Pubmed ID>  (1) 
18954038

>  <DOI>  (1) 
10.1021/jm8009537

$$$$
