4wnv_ligand_1087
     RDKit          2D

 20 22  0  0  0  0  0  0  0  0999 V2000
    0.0000   -0.0000   -0.0000 F   0  0  0  0  0  0  0  0  0  0  0  0
    0.3668    1.4552   -0.0000 C   0  0  0  0  0  0  0  0  0  0  0  0
    1.7983    1.8575   -0.0000 C   0  0  0  0  0  0  0  0  0  0  0  0
   -0.7099    2.5082   -0.0000 C   0  0  0  0  0  0  0  0  0  0  0  0
    3.0643    1.0766   -0.0000 N   0  0  0  0  0  0  0  0  0  0  0  0
    2.1533    3.3364   -0.0000 C   0  0  0  0  0  0  0  0  0  0  0  0
   -0.3431    3.9634   -0.0000 C   0  0  0  0  0  0  0  0  0  0  0  0
    4.2001    2.0586   -0.0000 C   0  0  0  0  0  0  0  0  0  0  0  0
    1.0766    4.3894   -0.0000 C   0  0  0  0  0  0  0  0  0  0  0  0
    3.6440    3.4547   -0.0000 C   0  0  0  0  0  0  0  0  0  0  0  0
   -1.4197    5.0164   -0.0000 C   0  0  0  0  0  0  0  0  0  0  0  0
   -1.0530    6.4717   -0.0000 O   0  0  0  0  0  0  0  0  0  0  0  0
   -2.8631    4.6260   -0.0000 C   0  0  0  0  0  0  0  0  0  0  0  0
   -2.7922    3.1471   -0.0000 N   0  0  0  0  0  0  0  0  0  0  0  0
   -4.3184    5.0164   -0.0000 C   0  0  0  0  0  0  0  0  0  0  0  0
   -2.8868    6.1404   -0.0000 C   0  0  0  0  0  0  0  0  0  0  0  0
   -4.2001    2.6147   -0.0000 C   0  0  0  0  0  0  0  0  0  0  0  0
   -5.1347    3.7741   -0.0000 C   0  0  0  0  0  0  0  0  0  0  0  0
   -4.2001    6.8857   -0.0000 C   0  0  0  0  0  0  0  0  0  0  0  0
   -4.2237    8.4001   -0.0000 C   0  0  0  0  0  0  0  0  0  0  0  0
  1  2  1  0
  2  3  2  0
  2  4  1  0
  3  5  1  0
  3  6  1  0
  4  7  2  0
  5  8  1  0
  6  9  2  0
  6 10  1  0
  7 11  1  0
 11 12  2  0
 11 13  1  0
 13 14  1  0
 13 15  1  0
 13 16  1  0
 14 17  1  0
 15 18  1  0
 16 19  1  0
 19 20  1  0
  7  9  1  0
  8 10  2  0
 17 18  1  0
M  END
>  <MolRegNo>  (1) 
690619

>  <m>  (1) 
=

>  <Value>  (1) 
30

>  <Unit>  (1) 
nM

>  <Type>  (1) 
IC50

>  <pValue>  (1) 
7.52

>  <Ligand Efficiency>  (1) 
0

>  <Binding Efficiency>  (1) 
0

>  <Surface Efficiency>  (1) 
0

>  <Assay Index>  (1) 
497257

>  <Assay Category>  (1) 


>  <Assay Organism>  (1) 


>  <Target ID>  (1) 
11365

>  <Target Name>  (1) 
Cytochrome P450 2D6

>  <Target Organism>  (1) 
Homo sapiens

>  <Target Description>  (1) 
Target is a single protein chain

>  <Sequence Accession>  (1) 
P10635

>  <Reference>  (1) 
Bioorg Med Chem Lett 20 (18), 5559-5566 (2010)

>  <Pubmed ID>  (1) 
20691589

>  <DOI>  (1) 
10.1016/j.bmcl.2010.07.020

$$$$
