4wnv_ligand_60
     RDKit          2D

 17 20  0  0  1  0  0  0  0  0999 V2000
    0.0000   -0.0000   -0.0000 N   0  0  0  0  0  0  0  0  0  0  0  0
    0.0000   -1.4733   -0.0000 C   0  0  0  0  0  0  0  0  0  0  0  0
   -1.5086    1.0725   -0.0000 C   0  0  0  0  0  0  0  0  0  0  0  0
    1.2729    0.7543   -0.0000 C   0  0  0  0  0  0  0  0  0  0  0  0
   -1.2965   -2.2158   -0.0000 C   0  0  0  0  0  0  0  0  0  0  0  0
    1.2847   -2.2040   -0.0000 C   0  0  0  0  0  0  0  0  0  0  0  0
   -2.5811    0.0236   -0.0000 C   0  0  0  0  0  0  0  0  0  0  0  0
    2.5458    0.0354   -0.0000 C   0  0  0  0  0  0  0  0  0  0  0  0
   -2.5929   -2.9347   -0.0000 C   0  0  0  0  0  0  0  0  0  0  0  0
   -1.3083   -0.7189   -0.0000 C   0  0  0  0  0  0  0  0  0  0  0  0
    2.5340   -1.4379   -0.0000 C   0  0  0  0  0  0  0  0  0  0  0  0
   -3.8776   -0.7072   -0.0000 C   0  0  0  0  0  0  0  0  0  0  0  0
   -3.8894   -2.1804   -0.0000 N   0  0  0  0  0  0  0  0  0  0  0  0
   -5.1741    0.0471   -0.0000 C   0  0  0  0  0  0  0  0  0  0  0  0
   -5.1859   -2.9112   -0.0000 C   0  0  0  0  0  0  0  0  0  0  0  0
   -6.4470   -0.6836   -0.0000 C   0  0  0  0  0  0  0  0  0  0  0  0
   -6.4588   -2.1568   -0.0000 C   0  0  0  0  0  0  0  0  0  0  0  0
  1  2  1  0
  1  3  1  0
  1  4  1  0
  5  2  1  0
  2  6  1  0
  7  3  1  6
  4  8  1  0
  5  9  1  6
  5 10  1  0
  6 11  1  0
  7 12  1  0
  9 13  1  0
 12 14  1  0
 13 15  1  0
 14 16  1  0
 15 17  1  0
  7 10  1  0
  8 11  1  0
 12 13  1  0
 16 17  1  0
M  END
>  <MolRegNo>  (1) 
1547804

>  <m>  (1) 
=

>  <Value>  (1) 
66400

>  <Unit>  (1) 
nM

>  <Type>  (1) 
IC50

>  <pValue>  (1) 
4.18

>  <Ligand Efficiency>  (1) 
0

>  <Binding Efficiency>  (1) 
0

>  <Surface Efficiency>  (1) 
0

>  <Assay Index>  (1) 
51626

>  <Assay Category>  (1) 


>  <Assay Organism>  (1) 
Homo sapiens

>  <Target ID>  (1) 
11365

>  <Target Name>  (1) 
Cytochrome P450 2D6

>  <Target Organism>  (1) 
Homo sapiens

>  <Target Description>  (1) 
Target is a single protein chain

>  <Sequence Accession>  (1) 
P10635

>  <Reference>  (1) 
J Med Chem 46 (1), 74-86 (2003)

>  <Pubmed ID>  (1) 
12502361

>  <DOI>  (1) 
10.1021/jm0209578

$$$$
