4wnv_ligand_960
     RDKit          2D

 21 23  0  0  0  0  0  0  0  0999 V2000
    0.0000   -0.0000   -0.0000 N   0  0  0  0  0  0  0  0  0  0  0  0
   -1.4497    0.4753   -0.0000 C   0  0  0  0  0  0  0  0  0  0  0  0
    0.8675    1.2358   -0.0000 C   0  0  0  0  0  0  0  0  0  0  0  0
   -2.7568   -0.2614   -0.0000 C   0  0  0  0  0  0  0  0  0  0  0  0
   -1.4616    1.9963   -0.0000 C   0  0  0  0  0  0  0  0  0  0  0  0
   -0.0356    2.4598   -0.0000 N   0  0  0  0  0  0  0  0  0  0  0  0
    2.3528    1.2596   -0.0000 C   0  0  0  0  0  0  0  0  0  0  0  0
   -2.7687   -1.7468   -0.0000 N   0  0  0  0  0  0  0  0  0  0  0  0
   -4.0640    0.4872   -0.0000 C   0  0  0  0  0  0  0  0  0  0  0  0
   -2.7687    2.7450   -0.0000 C   0  0  0  0  0  0  0  0  0  0  0  0
    0.4040    3.8976   -0.0000 C   0  0  0  0  0  0  0  0  0  0  0  0
   -4.0759   -2.4835   -0.0000 C   0  0  0  0  0  0  0  0  0  0  0  0
   -4.0759    2.0082   -0.0000 C   0  0  0  0  0  0  0  0  0  0  0  0
   -4.0877   -3.9689   -0.0000 C   0  0  0  0  0  0  0  0  0  0  0  0
   -2.8044   -4.6938   -0.0000 C   0  0  0  0  0  0  0  0  0  0  0  0
   -5.3949   -4.6938   -0.0000 C   0  0  0  0  0  0  0  0  0  0  0  0
   -2.8044   -6.1672   -0.0000 C   0  0  0  0  0  0  0  0  0  0  0  0
   -1.5210   -3.9333   -0.0000 C   0  0  0  0  0  0  0  0  0  0  0  0
   -5.4067   -6.1791   -0.0000 C   0  0  0  0  0  0  0  0  0  0  0  0
   -6.7020   -3.9333   -0.0000 C   0  0  0  0  0  0  0  0  0  0  0  0
   -4.1115   -6.9159   -0.0000 C   0  0  0  0  0  0  0  0  0  0  0  0
  1  2  1  0
  1  3  2  0
  2  4  2  0
  2  5  1  0
  3  6  1  0
  3  7  1  0
  4  8  1  0
  4  9  1  0
  5 10  2  0
  6 11  1  0
  8 12  1  0
  9 13  2  0
 12 14  1  0
 14 15  2  0
 14 16  1  0
 15 17  1  0
 15 18  1  0
 16 19  2  0
 16 20  1  0
 17 21  2  0
  5  6  1  0
 10 13  1  0
 19 21  1  0
M  END
>  <MolRegNo>  (1) 
611512

>  <m>  (1) 
=

>  <Value>  (1) 
35000

>  <Unit>  (1) 
nM

>  <Type>  (1) 
IC50

>  <pValue>  (1) 
4.46

>  <Ligand Efficiency>  (1) 
0

>  <Binding Efficiency>  (1) 
0

>  <Surface Efficiency>  (1) 
0

>  <Assay Index>  (1) 
464697

>  <Assay Category>  (1) 


>  <Assay Organism>  (1) 


>  <Target ID>  (1) 
11365

>  <Target Name>  (1) 
Cytochrome P450 2D6

>  <Target Organism>  (1) 
Homo sapiens

>  <Target Description>  (1) 
Target is a single protein chain

>  <Sequence Accession>  (1) 
P10635

>  <Reference>  (1) 
Bioorg Med Chem Lett 19 (23), 6813-6817 (2009)

>  <Pubmed ID>  (1) 
19846298

>  <DOI>  (1) 
10.1016/j.bmcl.2009.07.002

$$$$
