4wnv_ligand_1098
     RDKit          2D

 34 38  0  0  0  0  0  0  0  0999 V2000
    0.0000   -0.0000   -0.0000 O   0  0  0  0  0  0  0  0  0  0  0  0
   -0.0121    1.4965   -0.0000 C   0  0  0  0  0  0  0  0  0  0  0  0
    1.2672    2.2568   -0.0000 N   0  0  0  0  0  0  0  0  0  0  0  0
   -1.3155    2.2568   -0.0000 C   0  0  0  0  0  0  0  0  0  0  0  0
    2.5464    1.5206   -0.0000 C   0  0  0  0  0  0  0  0  0  0  0  0
   -2.6188    1.5206   -0.0000 C   0  0  0  0  0  0  0  0  0  0  0  0
   -1.3275    3.7653   -0.0000 C   0  0  0  0  0  0  0  0  0  0  0  0
   -3.9222    2.2809   -0.0000 C   0  0  0  0  0  0  0  0  0  0  0  0
   -2.6309    4.5136   -0.0000 C   0  0  0  0  0  0  0  0  0  0  0  0
   -3.9222    3.7895   -0.0000 C   0  0  0  0  0  0  0  0  0  0  0  0
   -5.2256    4.5498   -0.0000 C   0  0  0  0  0  0  0  0  0  0  0  0
   -6.5290    3.8136   -0.0000 N   0  0  0  0  0  0  0  0  0  0  0  0
   -5.2377    6.0583   -0.0000 C   0  0  0  0  0  0  0  0  0  0  0  0
   -7.8203    4.6946   -0.0000 C   0  0  0  0  0  0  0  0  0  0  0  0
   -6.4445    2.3292   -0.0000 C   0  0  0  0  0  0  0  0  0  0  0  0
   -4.0429    6.9393   -0.0000 N   0  0  0  0  0  0  0  0  0  0  0  0
   -6.4566    6.9393   -0.0000 N   0  0  0  0  0  0  0  0  0  0  0  0
   -9.2203    4.2481   -0.0000 C   0  0  0  0  0  0  0  0  0  0  0  0
   -7.5790    1.3517   -0.0000 C   0  0  0  0  0  0  0  0  0  0  0  0
   -4.5257    8.3755   -0.0000 N   0  0  0  0  0  0  0  0  0  0  0  0
   -5.9980    8.3755   -0.0000 N   0  0  0  0  0  0  0  0  0  0  0  0
   -7.8807    6.4928   -0.0000 C   0  0  0  0  0  0  0  0  0  0  0  0
   -9.7995    2.9085   -0.0000 N   0  0  0  0  0  0  0  0  0  0  0  0
   -9.1237    1.6292   -0.0000 C   0  0  0  0  0  0  0  0  0  0  0  0
   -8.9427    7.5548   -0.0000 C   0  0  0  0  0  0  0  0  0  0  0  0
  -11.2960    2.8481   -0.0000 C   0  0  0  0  0  0  0  0  0  0  0  0
   -8.5686    9.0030   -0.0000 C   0  0  0  0  0  0  0  0  0  0  0  0
  -10.3909    7.1807   -0.0000 C   0  0  0  0  0  0  0  0  0  0  0  0
  -12.4184    3.8619   -0.0000 C   0  0  0  0  0  0  0  0  0  0  0  0
  -12.3098    1.7499   -0.0000 C   0  0  0  0  0  0  0  0  0  0  0  0
   -9.6306   10.0771   -0.0000 C   0  0  0  0  0  0  0  0  0  0  0  0
  -11.4650    8.2427   -0.0000 C   0  0  0  0  0  0  0  0  0  0  0  0
  -13.4321    2.7637   -0.0000 C   0  0  0  0  0  0  0  0  0  0  0  0
  -11.0909    9.7030   -0.0000 C   0  0  0  0  0  0  0  0  0  0  0  0
  1  2  2  0
  2  3  1  0
  2  4  1  0
  3  5  1  0
  4  6  2  0
  4  7  1  0
  6  8  1  0
  7  9  2  0
  8 10  2  0
 10 11  1  0
 11 12  1  0
 11 13  1  0
 12 14  1  0
 12 15  1  0
 13 16  2  0
 13 17  1  0
 14 18  1  0
 15 19  1  0
 16 20  1  0
 17 21  1  0
 17 22  1  0
 18 23  1  0
 19 24  1  0
 22 25  1  0
 23 26  1  0
 25 27  2  0
 25 28  1  0
 26 29  1  0
 26 30  1  0
 27 31  1  0
 28 32  2  0
 29 33  1  0
 31 34  2  0
  9 10  1  0
 20 21  2  0
 23 24  1  0
 30 33  1  0
 32 34  1  0
M  END
>  <MolRegNo>  (1) 
689600

>  <m>  (1) 
=

>  <Value>  (1) 
1400

>  <Unit>  (1) 
nM

>  <Type>  (1) 
IC50

>  <pValue>  (1) 
5.85

>  <Ligand Efficiency>  (1) 
0

>  <Binding Efficiency>  (1) 
0

>  <Surface Efficiency>  (1) 
0

>  <Assay Index>  (1) 
496611

>  <Assay Category>  (1) 


>  <Assay Organism>  (1) 


>  <Target ID>  (1) 
11365

>  <Target Name>  (1) 
Cytochrome P450 2D6

>  <Target Organism>  (1) 
Homo sapiens

>  <Target Description>  (1) 
Target is a single protein chain

>  <Sequence Accession>  (1) 
P10635

>  <Reference>  (1) 
Bioorg Med Chem Lett 20 (17), 5165-5169 (2010)

>  <Pubmed ID>  (1) 
20667729

>  <DOI>  (1) 
10.1016/j.bmcl.2010.07.009

$$$$
