4wnv_ligand_322
     RDKit          2D

 34 38  0  0  0  0  0  0  0  0999 V2000
    0.0000   -0.0000   -0.0000 Cl  0  0  0  0  0  0  0  0  0  0  0  0
   -1.4338   -0.4503   -0.0000 C   0  0  0  0  0  0  0  0  0  0  0  0
   -2.5595    0.5569   -0.0000 C   0  0  0  0  0  0  0  0  0  0  0  0
   -1.7656   -1.9078   -0.0000 C   0  0  0  0  0  0  0  0  0  0  0  0
   -3.9815    0.1066   -0.0000 C   0  0  0  0  0  0  0  0  0  0  0  0
   -3.2113   -2.3462   -0.0000 C   0  0  0  0  0  0  0  0  0  0  0  0
   -4.3251   -1.3390   -0.0000 C   0  0  0  0  0  0  0  0  0  0  0  0
   -5.1072    1.1257   -0.0000 C   0  0  0  0  0  0  0  0  0  0  0  0
   -6.5410    0.6873   -0.0000 N   0  0  0  0  0  0  0  0  0  0  0  0
   -6.8728   -0.7584   -0.0000 C   0  0  0  0  0  0  0  0  0  0  0  0
   -7.6668    1.7064   -0.0000 C   0  0  0  0  0  0  0  0  0  0  0  0
   -8.3067   -1.1968   -0.0000 C   0  0  0  0  0  0  0  0  0  0  0  0
   -9.1124    1.2561   -0.0000 C   0  0  0  0  0  0  0  0  0  0  0  0
   -9.4324   -0.1777   -0.0000 C   0  0  0  0  0  0  0  0  0  0  0  0
  -10.8662   -0.6280   -0.0000 N   0  0  0  0  0  0  0  0  0  0  0  0
  -12.0986    0.2607   -0.0000 C   0  0  0  0  0  0  0  0  0  0  0  0
  -11.3402   -2.0382   -0.0000 C   0  0  0  0  0  0  0  0  0  0  0  0
  -12.1104    1.7656   -0.0000 O   0  0  0  0  0  0  0  0  0  0  0  0
  -13.3191   -0.6162   -0.0000 N   0  0  0  0  0  0  0  0  0  0  0  0
  -12.8451   -2.0263   -0.0000 C   0  0  0  0  0  0  0  0  0  0  0  0
  -12.5725   -3.4838   -0.0000 C   0  0  0  0  0  0  0  0  0  0  0  0
  -14.3619   -2.0026   -0.0000 C   0  0  0  0  0  0  0  0  0  0  0  0
  -13.7101   -4.4436   -0.0000 C   0  0  0  0  0  0  0  0  0  0  0  0
  -11.1743   -3.9460   -0.0000 C   0  0  0  0  0  0  0  0  0  0  0  0
  -15.1202   -0.6754   -0.0000 C   0  0  0  0  0  0  0  0  0  0  0  0
  -15.1202   -3.2824   -0.0000 C   0  0  0  0  0  0  0  0  0  0  0  0
  -13.4376   -5.9012   -0.0000 C   0  0  0  0  0  0  0  0  0  0  0  0
  -10.9017   -5.3916   -0.0000 C   0  0  0  0  0  0  0  0  0  0  0  0
  -16.6370   -0.6517   -0.0000 C   0  0  0  0  0  0  0  0  0  0  0  0
  -16.6370   -3.2705   -0.0000 C   0  0  0  0  0  0  0  0  0  0  0  0
  -12.0393   -6.3751   -0.0000 C   0  0  0  0  0  0  0  0  0  0  0  0
  -17.4072   -1.9434   -0.0000 C   0  0  0  0  0  0  0  0  0  0  0  0
  -11.7668   -7.8327   -0.0000 F   0  0  0  0  0  0  0  0  0  0  0  0
  -18.9121   -1.9315   -0.0000 F   0  0  0  0  0  0  0  0  0  0  0  0
  1  2  1  0
  2  3  2  0
  2  4  1  0
  3  5  1  0
  4  6  2  0
  5  7  2  0
  5  8  1  0
  8  9  1  0
  9 10  1  0
  9 11  1  0
 10 12  1  0
 11 13  1  0
 12 14  1  0
 14 15  1  0
 15 16  1  0
 15 17  1  0
 16 18  2  0
 16 19  1  0
 17 20  1  0
 20 21  1  0
 20 22  1  0
 21 23  2  0
 21 24  1  0
 22 25  2  0
 22 26  1  0
 23 27  1  0
 24 28  2  0
 25 29  1  0
 26 30  2  0
 27 31  2  0
 29 32  2  0
 31 33  1  0
 32 34  1  0
  6  7  1  0
 13 14  1  0
 19 20  1  0
 28 31  1  0
 30 32  1  0
M  END
>  <MolRegNo>  (1) 
371484

>  <m>  (1) 
=

>  <Value>  (1) 
5300

>  <Unit>  (1) 
nM

>  <Type>  (1) 
IC50

>  <pValue>  (1) 
5.28

>  <Ligand Efficiency>  (1) 
0

>  <Binding Efficiency>  (1) 
0

>  <Surface Efficiency>  (1) 
0

>  <Assay Index>  (1) 
278051

>  <Assay Category>  (1) 


>  <Assay Organism>  (1) 
Homo sapiens

>  <Target ID>  (1) 
11365

>  <Target Name>  (1) 
Cytochrome P450 2D6

>  <Target Organism>  (1) 
Homo sapiens

>  <Target Description>  (1) 
Target is a single protein chain

>  <Sequence Accession>  (1) 
P10635

>  <Reference>  (1) 
J Med Chem 50 (7), 1571-1583 (2007)

>  <Pubmed ID>  (1) 
17352462

>  <DOI>  (1) 
10.1021/jm061159a

$$$$
