4wnv_ligand_403
     RDKit          2D

 24 26  0  0  1  0  0  0  0  0999 V2000
    0.0000   -0.0000   -0.0000 F   0  0  0  0  0  0  0  0  0  0  0  0
    0.0000    1.5029   -0.0000 C   0  0  0  0  0  0  0  0  0  0  0  0
    1.4792    1.5029   -0.0000 F   0  0  0  0  0  0  0  0  0  0  0  0
   -1.5029    1.5265   -0.0000 F   0  0  0  0  0  0  0  0  0  0  0  0
   -0.0118    3.0057   -0.0000 C   0  0  0  0  0  0  0  0  0  0  0  0
   -1.3135    3.7631   -0.0000 C   0  0  0  0  0  0  0  0  0  0  0  0
    1.2780    3.7631   -0.0000 C   0  0  0  0  0  0  0  0  0  0  0  0
   -1.3254    5.2778   -0.0000 C   0  0  0  0  0  0  0  0  0  0  0  0
   -2.6270    3.0294   -0.0000 C   0  0  0  0  0  0  0  0  0  0  0  0
    1.2662    5.2778   -0.0000 C   0  0  0  0  0  0  0  0  0  0  0  0
   -0.0473    6.0351   -0.0000 C   0  0  0  0  0  0  0  0  0  0  0  0
   -2.6270    6.0351   -0.0000 C   0  0  0  0  0  0  0  0  0  0  0  0
   -2.6389    7.5380   -0.0000 N   0  0  0  0  0  0  0  0  0  0  0  0
   -3.9406    8.2953   -0.0000 C   0  0  0  0  0  0  0  0  0  0  0  0
   -1.3609    8.2953   -0.0000 C   0  0  0  0  0  0  0  0  0  0  0  0
   -3.9524    9.7982   -0.0000 C   0  0  0  0  0  0  0  0  0  0  0  0
   -5.2423    7.5616   -0.0000 C   0  0  0  0  0  0  0  0  0  0  0  0
   -1.2189    9.7982   -0.0000 C   0  0  0  0  0  0  0  0  0  0  0  0
   -0.0118    7.7036   -0.0000 C   0  0  0  0  0  0  0  0  0  0  0  0
   -5.2541   10.5555   -0.0000 C   0  0  0  0  0  0  0  0  0  0  0  0
   -6.5439    8.3308   -0.0000 C   0  0  0  0  0  0  0  0  0  0  0  0
    0.2367   10.1177   -0.0000 N   0  0  0  0  0  0  0  0  0  0  0  0
    0.9822    8.8278   -0.0000 C   0  0  0  0  0  0  0  0  0  0  0  0
   -6.5676    9.8218   -0.0000 O   0  0  0  0  0  0  0  0  0  0  0  0
  1  2  1  0
  2  3  1  0
  2  4  1  0
  2  5  1  0
  5  6  2  0
  5  7  1  0
  6  8  1  0
  6  9  1  0
  7 10  2  0
  8 11  2  0
  8 12  1  0
 12 13  1  0
 13 14  1  0
 15 13  1  6
 14 16  1  0
 14 17  1  0
 15 18  1  0
 15 19  1  0
 16 20  1  0
 17 21  1  0
 18 22  1  0
 19 23  1  0
 20 24  1  0
 10 11  1  0
 21 24  1  0
 22 23  1  0
M  END
>  <MolRegNo>  (1) 
412787

>  <m>  (1) 
=

>  <Value>  (1) 
5500

>  <Unit>  (1) 
nM

>  <Type>  (1) 
IC50

>  <pValue>  (1) 
5.26

>  <Ligand Efficiency>  (1) 
0

>  <Binding Efficiency>  (1) 
0

>  <Surface Efficiency>  (1) 
0

>  <Assay Index>  (1) 
303145

>  <Assay Category>  (1) 


>  <Assay Organism>  (1) 
Homo sapiens

>  <Target ID>  (1) 
11365

>  <Target Name>  (1) 
Cytochrome P450 2D6

>  <Target Organism>  (1) 
Homo sapiens

>  <Target Description>  (1) 
Target is a single protein chain

>  <Sequence Accession>  (1) 
P10635

>  <Reference>  (1) 
Bioorg Med Chem Lett 17 (7), 2022-2025 (2007)

>  <Pubmed ID>  (1) 
17267217

>  <DOI>  (1) 
10.1016/j.bmcl.2007.01.020

$$$$
