4wnv_ligand_137
     RDKit          2D

 23 24  0  0  0  0  0  0  0  0999 V2000
    0.0000   -0.0000   -0.0000 O   0  0  0  0  0  0  0  0  0  0  0  0
    0.0000    1.4996   -0.0000 C   0  0  0  0  0  0  0  0  0  0  0  0
   -1.4520    1.8923   -0.0000 N   0  0  0  0  0  0  0  0  0  0  0  0
    1.4282    1.9042   -0.0000 C   0  0  0  0  0  0  0  0  0  0  0  0
   -1.4639    3.3919   -0.0000 C   0  0  0  0  0  0  0  0  0  0  0  0
   -2.7849    4.1536   -0.0000 C   0  0  0  0  0  0  0  0  0  0  0  0
   -0.1785    4.1655   -0.0000 C   0  0  0  0  0  0  0  0  0  0  0  0
   -2.7968    5.6770   -0.0000 C   0  0  0  0  0  0  0  0  0  0  0  0
   -4.0822    3.4157   -0.0000 C   0  0  0  0  0  0  0  0  0  0  0  0
   -0.2023    5.6651   -0.0000 C   0  0  0  0  0  0  0  0  0  0  0  0
   -1.5234    6.4387   -0.0000 C   0  0  0  0  0  0  0  0  0  0  0  0
   -4.0941    6.4387   -0.0000 C   0  0  0  0  0  0  0  0  0  0  0  0
   -5.4033    4.1774   -0.0000 C   0  0  0  0  0  0  0  0  0  0  0  0
   -1.5353    7.9502   -0.0000 O   0  0  0  0  0  0  0  0  0  0  0  0
   -5.4033    5.6889   -0.0000 C   0  0  0  0  0  0  0  0  0  0  0  0
   -0.2499    8.7238   -0.0000 C   0  0  0  0  0  0  0  0  0  0  0  0
    1.0116    7.9859   -0.0000 C   0  0  0  0  0  0  0  0  0  0  0  0
    0.9997    6.5101   -0.0000 O   0  0  0  0  0  0  0  0  0  0  0  0
    2.2970    8.7476   -0.0000 C   0  0  0  0  0  0  0  0  0  0  0  0
    3.5823    8.0097   -0.0000 N   0  0  0  0  0  0  0  0  0  0  0  0
    4.8558    8.7833   -0.0000 C   0  0  0  0  0  0  0  0  0  0  0  0
    4.8439   10.2828   -0.0000 C   0  0  0  0  0  0  0  0  0  0  0  0
    6.1530    8.0454   -0.0000 C   0  0  0  0  0  0  0  0  0  0  0  0
  1  2  2  0
  2  3  1  0
  2  4  1  0
  3  5  1  0
  5  6  2  0
  5  7  1  0
  6  8  1  0
  6  9  1  0
  7 10  2  0
  8 11  2  0
  8 12  1  0
  9 13  2  0
 11 14  1  0
 12 15  2  0
 14 16  1  0
 16 17  1  0
 17 18  1  0
 17 19  1  0
 19 20  1  0
 20 21  1  0
 21 22  1  0
 21 23  1  0
 10 11  1  0
 13 15  1  0
M  END
>  <MolRegNo>  (1) 
301177

>  <m>  (1) 
=

>  <Value>  (1) 
1.0e5

>  <Unit>  (1) 
nM

>  <Type>  (1) 
IC50

>  <pValue>  (1) 
4

>  <Ligand Efficiency>  (1) 
0

>  <Binding Efficiency>  (1) 
0

>  <Surface Efficiency>  (1) 
0

>  <Assay Index>  (1) 
238811

>  <Assay Category>  (1) 


>  <Assay Organism>  (1) 
Homo sapiens

>  <Target ID>  (1) 
11365

>  <Target Name>  (1) 
Cytochrome P450 2D6

>  <Target Organism>  (1) 
Homo sapiens

>  <Target Description>  (1) 
Target is a single protein chain

>  <Sequence Accession>  (1) 
P10635

>  <Reference>  (1) 
Bioorg Med Chem Lett 15 (17), 3816-3820 (2005)

>  <Pubmed ID>  (1) 
15993593

>  <DOI>  (1) 
10.1016/j.bmcl.2005.06.007

$$$$
