4wnv_ligand_1096
     RDKit          2D

 29 31  0  0  0  0  0  0  0  0999 V2000
    0.0000   -0.0000   -0.0000 F   0  0  0  0  0  0  0  0  0  0  0  0
   -1.3132   -0.7402   -0.0000 C   0  0  0  0  0  0  0  0  0  0  0  0
   -2.6265    0.0239   -0.0000 F   0  0  0  0  0  0  0  0  0  0  0  0
   -1.3371    0.7879   -0.0000 F   0  0  0  0  0  0  0  0  0  0  0  0
   -1.3252   -2.2325   -0.0000 C   0  0  0  0  0  0  0  0  0  0  0  0
   -0.0358   -2.9727   -0.0000 C   0  0  0  0  0  0  0  0  0  0  0  0
   -2.6384   -2.9727   -0.0000 C   0  0  0  0  0  0  0  0  0  0  0  0
    1.2535   -2.2086   -0.0000 C   0  0  0  0  0  0  0  0  0  0  0  0
   -0.0478   -4.4769   -0.0000 C   0  0  0  0  0  0  0  0  0  0  0  0
   -2.6503   -4.4769   -0.0000 C   0  0  0  0  0  0  0  0  0  0  0  0
    2.5429   -2.9488   -0.0000 C   0  0  0  0  0  0  0  0  0  0  0  0
    1.2297   -0.7044   -0.0000 C   0  0  0  0  0  0  0  0  0  0  0  0
   -1.3729   -5.2171   -0.0000 C   0  0  0  0  0  0  0  0  0  0  0  0
    3.8323   -2.1847   -0.0000 C   0  0  0  0  0  0  0  0  0  0  0  0
    2.5071    0.0716   -0.0000 C   0  0  0  0  0  0  0  0  0  0  0  0
   -1.3849   -6.7094   -0.0000 C   0  0  0  0  0  0  0  0  0  0  0  0
    5.1216   -2.9249   -0.0000 N   0  0  0  0  0  0  0  0  0  0  0  0
    3.8203   -0.6686   -0.0000 C   0  0  0  0  0  0  0  0  0  0  0  0
   -2.6981   -7.4496   -0.0000 F   0  0  0  0  0  0  0  0  0  0  0  0
   -0.0955   -7.4496   -0.0000 F   0  0  0  0  0  0  0  0  0  0  0  0
   -1.4087   -8.2018   -0.0000 F   0  0  0  0  0  0  0  0  0  0  0  0
    6.4826   -2.3041   -0.0000 N   0  0  0  0  0  0  0  0  0  0  0  0
    5.2768   -4.4172   -0.0000 C   0  0  0  0  0  0  0  0  0  0  0  0
    7.4854   -3.4025   -0.0000 C   0  0  0  0  0  0  0  0  0  0  0  0
    6.7333   -4.7157   -0.0000 C   0  0  0  0  0  0  0  0  0  0  0  0
    4.1546   -5.4201   -0.0000 C   0  0  0  0  0  0  0  0  0  0  0  0
    8.9658   -3.2234   -0.0000 C   0  0  0  0  0  0  0  0  0  0  0  0
    9.5627   -1.8385   -0.0000 O   0  0  0  0  0  0  0  0  0  0  0  0
    9.8493   -4.4292   -0.0000 N   0  0  0  0  0  0  0  0  0  0  0  0
  1  2  1  0
  2  3  1  0
  2  4  1  0
  2  5  1  0
  5  6  2  0
  5  7  1  0
  6  8  1  0
  6  9  1  0
  7 10  2  0
  8 11  2  0
  8 12  1  0
  9 13  2  0
 11 14  1  0
 12 15  2  0
 13 16  1  0
 14 17  1  0
 14 18  2  0
 16 19  1  0
 16 20  1  0
 16 21  1  0
 17 22  1  0
 17 23  1  0
 22 24  2  0
 23 25  2  0
 23 26  1  0
 24 27  1  0
 27 28  2  0
 27 29  1  0
 10 13  1  0
 15 18  1  0
 24 25  1  0
M  END
>  <MolRegNo>  (1) 
690649

>  <m>  (1) 
=

>  <Value>  (1) 
33000

>  <Unit>  (1) 
nM

>  <Type>  (1) 
IC50

>  <pValue>  (1) 
4.48

>  <Ligand Efficiency>  (1) 
0

>  <Binding Efficiency>  (1) 
0

>  <Surface Efficiency>  (1) 
0

>  <Assay Index>  (1) 
497602

>  <Assay Category>  (1) 


>  <Assay Organism>  (1) 


>  <Target ID>  (1) 
11365

>  <Target Name>  (1) 
Cytochrome P450 2D6

>  <Target Organism>  (1) 
Homo sapiens

>  <Target Description>  (1) 
Target is a single protein chain

>  <Sequence Accession>  (1) 
P10635

>  <Reference>  (1) 
Bioorg Med Chem Lett 20 (18), 5480-5483 (2010)

>  <Pubmed ID>  (1) 
20709545

>  <DOI>  (1) 
10.1016/j.bmcl.2010.07.080

$$$$
