4wnv_ligand_739
     RDKit          2D

 22 24  0  0  0  0  0  0  0  0999 V2000
    0.0000   -0.0000   -0.0000 O   0  0  0  0  0  0  0  0  0  0  0  0
    1.4535    0.3217   -0.0000 C   0  0  0  0  0  0  0  0  0  0  0  0
   -0.4766   -1.4177   -0.0000 C   0  0  0  0  0  0  0  0  0  0  0  0
    1.8943    1.7513   -0.0000 C   0  0  0  0  0  0  0  0  0  0  0  0
    2.4304   -0.7863   -0.0000 C   0  0  0  0  0  0  0  0  0  0  0  0
   -1.9300   -1.8705   -0.0000 C   0  0  0  0  0  0  0  0  0  0  0  0
    0.4051   -2.6329   -0.0000 C   0  0  0  0  0  0  0  0  0  0  0  0
    3.3478    2.0849   -0.0000 C   0  0  0  0  0  0  0  0  0  0  0  0
    0.8697    2.8712   -0.0000 C   0  0  0  0  0  0  0  0  0  0  0  0
    3.8839   -0.4646   -0.0000 C   0  0  0  0  0  0  0  0  0  0  0  0
   -1.9419   -3.3716   -0.0000 C   0  0  0  0  0  0  0  0  0  0  0  0
   -3.2406   -1.1199   -0.0000 C   0  0  0  0  0  0  0  0  0  0  0  0
    1.4535   -1.5488   -0.0000 O   0  0  0  0  0  0  0  0  0  0  0  0
   -0.5004   -3.8482   -0.0000 C   0  0  0  0  0  0  0  0  0  0  0  0
    1.8943   -2.6210   -0.0000 C   0  0  0  0  0  0  0  0  0  0  0  0
    4.3485    0.9769   -0.0000 C   0  0  0  0  0  0  0  0  0  0  0  0
   -3.2525   -4.1103   -0.0000 C   0  0  0  0  0  0  0  0  0  0  0  0
   -4.5511   -1.8586   -0.0000 C   0  0  0  0  0  0  0  0  0  0  0  0
    2.6329   -3.9077   -0.0000 N   0  0  0  0  0  0  0  0  0  0  0  0
   -4.5630   -3.3478   -0.0000 C   0  0  0  0  0  0  0  0  0  0  0  0
    4.1222   -3.8958   -0.0000 C   0  0  0  0  0  0  0  0  0  0  0  0
    4.8608   -5.1825   -0.0000 C   0  0  0  0  0  0  0  0  0  0  0  0
  1  2  1  0
  1  3  1  0
  2  4  2  0
  2  5  1  0
  3  6  1  0
  3  7  1  0
  4  8  1  0
  4  9  1  0
  5 10  2  0
  6 11  2  0
  6 12  1  0
  7 13  1  0
  7 14  1  0
  7 15  1  0
  8 16  2  0
 11 17  1  0
 12 18  2  0
 15 19  1  0
 17 20  2  0
 19 21  1  0
 21 22  1  0
 10 16  1  0
 11 14  1  0
 18 20  1  0
M  END
>  <MolRegNo>  (1) 
453379

>  <m>  (1) 
=

>  <Value>  (1) 
1300

>  <Unit>  (1) 
nM

>  <Type>  (1) 
IC50

>  <pValue>  (1) 
5.89

>  <Ligand Efficiency>  (1) 
0

>  <Binding Efficiency>  (1) 
0

>  <Surface Efficiency>  (1) 
0

>  <Assay Index>  (1) 
407281

>  <Assay Category>  (1) 


>  <Assay Organism>  (1) 


>  <Target ID>  (1) 
11365

>  <Target Name>  (1) 
Cytochrome P450 2D6

>  <Target Organism>  (1) 
Homo sapiens

>  <Target Description>  (1) 
Target is a single protein chain

>  <Sequence Accession>  (1) 
P10635

>  <Reference>  (1) 
Bioorg Med Chem Lett 18 (23), 6151-6155 (2008)

>  <Pubmed ID>  (1) 
18954981

>  <DOI>  (1) 
10.1016/j.bmcl.2008.10.013

$$$$
