4wnv_ligand_655
     RDKit          2D

 34 38  0  0  0  0  0  0  0  0999 V2000
    0.0000   -0.0000   -0.0000 Cl  0  0  0  0  0  0  0  0  0  0  0  0
   -1.3070    0.7536   -0.0000 C   0  0  0  0  0  0  0  0  0  0  0  0
   -1.3187    2.2607   -0.0000 N   0  0  0  0  0  0  0  0  0  0  0  0
   -2.6139    0.0235   -0.0000 C   0  0  0  0  0  0  0  0  0  0  0  0
   -2.6257    3.0143   -0.0000 C   0  0  0  0  0  0  0  0  0  0  0  0
   -3.9209    0.7771   -0.0000 C   0  0  0  0  0  0  0  0  0  0  0  0
   -3.9327    2.2725   -0.0000 C   0  0  0  0  0  0  0  0  0  0  0  0
   -5.2279    0.0471   -0.0000 C   0  0  0  0  0  0  0  0  0  0  0  0
   -6.5348    0.8007   -0.0000 N   0  0  0  0  0  0  0  0  0  0  0  0
   -5.2396   -1.4365   -0.0000 N   0  0  0  0  0  0  0  0  0  0  0  0
   -7.8418    0.0706   -0.0000 C   0  0  0  0  0  0  0  0  0  0  0  0
   -6.5466   -2.1665   -0.0000 C   0  0  0  0  0  0  0  0  0  0  0  0
   -7.8536   -1.4129   -0.0000 C   0  0  0  0  0  0  0  0  0  0  0  0
   -9.1488    0.8242   -0.0000 C   0  0  0  0  0  0  0  0  0  0  0  0
   -6.5584   -3.6501   -0.0000 C   0  0  0  0  0  0  0  0  0  0  0  0
   -9.1606   -2.1430   -0.0000 C   0  0  0  0  0  0  0  0  0  0  0  0
   -9.1606    2.3313   -0.0000 C   0  0  0  0  0  0  0  0  0  0  0  0
  -10.4557    0.0942   -0.0000 C   0  0  0  0  0  0  0  0  0  0  0  0
  -10.4675   -1.3894   -0.0000 O   0  0  0  0  0  0  0  0  0  0  0  0
   -9.1723   -3.6265   -0.0000 N   0  0  0  0  0  0  0  0  0  0  0  0
   -7.8771    3.0849   -0.0000 F   0  0  0  0  0  0  0  0  0  0  0  0
  -10.4675    3.0849   -0.0000 C   0  0  0  0  0  0  0  0  0  0  0  0
  -11.7627    0.8478   -0.0000 C   0  0  0  0  0  0  0  0  0  0  0  0
  -10.4793   -4.3683   -0.0000 C   0  0  0  0  0  0  0  0  0  0  0  0
  -11.7745    2.3431   -0.0000 C   0  0  0  0  0  0  0  0  0  0  0  0
  -11.7863   -3.6148   -0.0000 C   0  0  0  0  0  0  0  0  0  0  0  0
  -10.4911   -5.8519   -0.0000 C   0  0  0  0  0  0  0  0  0  0  0  0
  -13.0815    3.0967   -0.0000 Cl  0  0  0  0  0  0  0  0  0  0  0  0
  -13.0932   -4.3566   -0.0000 C   0  0  0  0  0  0  0  0  0  0  0  0
  -11.7980   -6.5937   -0.0000 C   0  0  0  0  0  0  0  0  0  0  0  0
  -13.1050   -5.8401   -0.0000 C   0  0  0  0  0  0  0  0  0  0  0  0
  -14.5297   -3.8856   -0.0000 C   0  0  0  0  0  0  0  0  0  0  0  0
  -14.5415   -6.2876   -0.0000 N   0  0  0  0  0  0  0  0  0  0  0  0
  -15.4246   -5.0866   -0.0000 N   0  0  0  0  0  0  0  0  0  0  0  0
  1  2  1  0
  2  3  2  0
  2  4  1  0
  3  5  1  0
  4  6  2  0
  5  7  2  0
  6  8  1  0
  8  9  2  0
  8 10  1  0
  9 11  1  0
 10 12  1  0
 11 13  1  0
 11 14  1  0
 12 15  1  0
 13 16  1  0
 14 17  2  0
 14 18  1  0
 16 19  2  0
 16 20  1  0
 17 21  1  0
 17 22  1  0
 18 23  2  0
 20 24  1  0
 22 25  2  0
 24 26  2  0
 24 27  1  0
 25 28  1  0
 26 29  1  0
 27 30  2  0
 29 31  2  0
 29 32  1  0
 31 33  1  0
 32 34  2  0
  6  7  1  0
 12 13  2  0
 23 25  1  0
 30 31  1  0
 33 34  1  0
M  END
>  <MolRegNo>  (1) 
513803

>  <m>  (1) 
=

>  <Value>  (1) 
5700

>  <Unit>  (1) 
nM

>  <Type>  (1) 
IC50

>  <pValue>  (1) 
5.24

>  <Ligand Efficiency>  (1) 
0

>  <Binding Efficiency>  (1) 
0

>  <Surface Efficiency>  (1) 
0

>  <Assay Index>  (1) 
386364

>  <Assay Category>  (1) 


>  <Assay Organism>  (1) 


>  <Target ID>  (1) 
11365

>  <Target Name>  (1) 
Cytochrome P450 2D6

>  <Target Organism>  (1) 
Homo sapiens

>  <Target Description>  (1) 
Target is a single protein chain

>  <Sequence Accession>  (1) 
P10635

>  <Reference>  (1) 
J Med Chem 51 (21), 6631-6634 (2008)

>  <Pubmed ID>  (1) 
18842034

>  <DOI>  (1) 
10.1021/jm8005096

$$$$
