4wnv_ligand_836
     RDKit          2D

 25 27  0  0  0  0  0  0  0  0999 V2000
    0.0000   -0.0000   -0.0000 O   0  0  0  0  0  0  0  0  0  0  0  0
   -0.0119   -1.4852   -0.0000 C   0  0  0  0  0  0  0  0  0  0  0  0
    1.2714   -2.2219   -0.0000 N   0  0  0  0  0  0  0  0  0  0  0  0
   -1.3189   -2.2219   -0.0000 C   0  0  0  0  0  0  0  0  0  0  0  0
    1.2595   -3.7071   -0.0000 C   0  0  0  0  0  0  0  0  0  0  0  0
    2.5546   -1.4615   -0.0000 C   0  0  0  0  0  0  0  0  0  0  0  0
   -2.6259   -1.4615   -0.0000 C   0  0  0  0  0  0  0  0  0  0  0  0
   -1.3308   -3.7190   -0.0000 C   0  0  0  0  0  0  0  0  0  0  0  0
    2.4595   -4.5745   -0.0000 C   0  0  0  0  0  0  0  0  0  0  0  0
    0.0356   -4.5745   -0.0000 C   0  0  0  0  0  0  0  0  0  0  0  0
    2.5427    0.0475   -0.0000 C   0  0  0  0  0  0  0  0  0  0  0  0
   -2.6378    0.0475   -0.0000 O   0  0  0  0  0  0  0  0  0  0  0  0
   -3.9329   -2.1981   -0.0000 C   0  0  0  0  0  0  0  0  0  0  0  0
   -2.6497   -4.4557   -0.0000 C   0  0  0  0  0  0  0  0  0  0  0  0
    1.9843   -5.9885   -0.0000 N   0  0  0  0  0  0  0  0  0  0  0  0
    0.4872   -5.9885   -0.0000 C   0  0  0  0  0  0  0  0  0  0  0  0
    1.2357    0.8080   -0.0000 C   0  0  0  0  0  0  0  0  0  0  0  0
    3.8260    0.8080   -0.0000 C   0  0  0  0  0  0  0  0  0  0  0  0
   -3.9448    0.8080   -0.0000 C   0  0  0  0  0  0  0  0  0  0  0  0
   -3.9448   -3.6953   -0.0000 C   0  0  0  0  0  0  0  0  0  0  0  0
   -3.9567    2.3288   -0.0000 C   0  0  0  0  0  0  0  0  0  0  0  0
   -5.2399    0.0713   -0.0000 C   0  0  0  0  0  0  0  0  0  0  0  0
   -5.2637    3.0774   -0.0000 C   0  0  0  0  0  0  0  0  0  0  0  0
   -6.5469    0.8198   -0.0000 C   0  0  0  0  0  0  0  0  0  0  0  0
   -6.5707    2.3526   -0.0000 C   0  0  0  0  0  0  0  0  0  0  0  0
  1  2  2  0
  2  3  1  0
  2  4  1  0
  5  3  1  6
  3  6  1  0
  4  7  1  0
  4  8  2  0
  5  9  1  0
  5 10  1  0
  6 11  1  0
  7 12  1  0
  7 13  2  0
  8 14  1  0
  9 15  1  0
 10 16  1  0
 11 17  1  0
 11 18  1  0
 12 19  1  0
 13 20  1  0
 19 21  2  0
 19 22  1  0
 21 23  1  0
 22 24  2  0
 23 25  2  0
 14 20  2  0
 15 16  1  0
 24 25  1  0
M  END
>  <MolRegNo>  (1) 
566112

>  <m>  (1) 
=

>  <Value>  (1) 
290

>  <Unit>  (1) 
nM

>  <Type>  (1) 
IC50

>  <pValue>  (1) 
6.54

>  <Ligand Efficiency>  (1) 
0

>  <Binding Efficiency>  (1) 
0

>  <Surface Efficiency>  (1) 
0

>  <Assay Index>  (1) 
427125

>  <Assay Category>  (1) 


>  <Assay Organism>  (1) 


>  <Target ID>  (1) 
11365

>  <Target Name>  (1) 
Cytochrome P450 2D6

>  <Target Organism>  (1) 
Homo sapiens

>  <Target Description>  (1) 
Target is a single protein chain

>  <Sequence Accession>  (1) 
P10635

>  <Reference>  (1) 
Bioorg Med Chem Lett 19 (16), 4579-4583 (2009)

>  <Pubmed ID>  (1) 
19616432

>  <DOI>  (1) 
10.1016/j.bmcl.2009.06.096

$$$$
