4wnv_ligand_236
     RDKit          2D

 28 30  0  0  1  0  0  0  0  0999 V2000
    0.0000   -0.0000   -0.0000 O   0  0  0  0  0  0  0  0  0  0  0  0
   -0.0119   -1.4876   -0.0000 C   0  0  0  0  0  0  0  0  0  0  0  0
    1.2734   -2.2255   -0.0000 N   0  0  0  0  0  0  0  0  0  0  0  0
   -1.3210   -2.2255   -0.0000 C   0  0  0  0  0  0  0  0  0  0  0  0
    2.5587   -1.4638   -0.0000 C   0  0  0  0  0  0  0  0  0  0  0  0
    1.2615   -3.7131   -0.0000 C   0  0  0  0  0  0  0  0  0  0  0  0
   -2.6301   -1.4638   -0.0000 N   0  0  0  0  0  0  0  0  0  0  0  0
    2.5468    0.0476   -0.0000 C   0  0  0  0  0  0  0  0  0  0  0  0
    3.8440   -2.2017   -0.0000 C   0  0  0  0  0  0  0  0  0  0  0  0
   -3.9392   -2.2017   -0.0000 C   0  0  0  0  0  0  0  0  0  0  0  0
    3.8321    0.8093   -0.0000 C   0  0  0  0  0  0  0  0  0  0  0  0
    1.2377    0.7974   -0.0000 C   0  0  0  0  0  0  0  0  0  0  0  0
    5.1293   -1.4400   -0.0000 N   0  0  0  0  0  0  0  0  0  0  0  0
   -3.9511   -3.7012   -0.0000 C   0  0  0  0  0  0  0  0  0  0  0  0
   -5.2483   -1.4400   -0.0000 C   0  0  0  0  0  0  0  0  0  0  0  0
    3.8202    2.3207   -0.0000 C   0  0  0  0  0  0  0  0  0  0  0  0
    1.2139    2.3088   -0.0000 C   0  0  0  0  0  0  0  0  0  0  0  0
    6.4860   -2.0351   -0.0000 C   0  0  0  0  0  0  0  0  0  0  0  0
    5.2721    0.0595   -0.0000 C   0  0  0  0  0  0  0  0  0  0  0  0
   -2.6539   -4.4391   -0.0000 C   0  0  0  0  0  0  0  0  0  0  0  0
   -5.2721   -4.4391   -0.0000 C   0  0  0  0  0  0  0  0  0  0  0  0
   -6.5575   -2.1779   -0.0000 C   0  0  0  0  0  0  0  0  0  0  0  0
    2.4992    3.0824   -0.0000 C   0  0  0  0  0  0  0  0  0  0  0  0
    7.4738   -0.9045   -0.0000 C   0  0  0  0  0  0  0  0  0  0  0  0
    6.7241    0.3927   -0.0000 C   0  0  0  0  0  0  0  0  0  0  0  0
   -1.3686   -5.1769   -0.0000 N   0  0  0  0  0  0  0  0  0  0  0  0
   -6.5813   -3.6774   -0.0000 C   0  0  0  0  0  0  0  0  0  0  0  0
    8.9615   -1.0473   -0.0000 O   0  0  0  0  0  0  0  0  0  0  0  0
  1  2  2  0
  2  3  1  0
  2  4  1  0
  5  3  1  0
  3  6  1  0
  4  7  1  0
  5  8  1  0
  5  9  1  1
  7 10  1  0
  8 11  2  0
  8 12  1  0
  9 13  1  0
 10 14  2  0
 10 15  1  0
 11 16  1  0
 12 17  2  0
 13 18  1  0
 13 19  1  0
 14 20  1  0
 14 21  1  0
 15 22  2  0
 16 23  2  0
 18 24  1  0
 19 25  1  0
 20 26  3  0
 21 27  2  0
 24 28  1  6
 17 23  1  0
 22 27  1  0
 24 25  1  0
M  END
>  <MolRegNo>  (1) 
337815

>  <m>  (1) 
=

>  <Value>  (1) 
510

>  <Unit>  (1) 
nM

>  <Type>  (1) 
IC50

>  <pValue>  (1) 
6.29

>  <Ligand Efficiency>  (1) 
0

>  <Binding Efficiency>  (1) 
0

>  <Surface Efficiency>  (1) 
0

>  <Assay Index>  (1) 
257094

>  <Assay Category>  (1) 


>  <Assay Organism>  (1) 
Homo sapiens

>  <Target ID>  (1) 
11365

>  <Target Name>  (1) 
Cytochrome P450 2D6

>  <Target Organism>  (1) 
Homo sapiens

>  <Target Description>  (1) 
Target is a single protein chain

>  <Sequence Accession>  (1) 
P10635

>  <Reference>  (1) 
Bioorg Med Chem Lett 16 (3), 645-648 (2006)

>  <Pubmed ID>  (1) 
16263278

>  <DOI>  (1) 
10.1016/j.bmcl.2005.10.034

$$$$
