4wnv_ligand_456
     RDKit          2D

 39 42  0  0  1  0  0  0  0  0999 V2000
    0.0000   -0.0000   -0.0000 S   0  0  0  0  0  0  0  0  0  0  0  0
    1.2043    0.8943   -0.0000 C   0  0  0  0  0  0  0  0  0  0  0  0
    0.4531   -1.4189   -0.0000 C   0  0  0  0  0  0  0  0  0  0  0  0
    2.4086    0.0358   -0.0000 N   0  0  0  0  0  0  0  0  0  0  0  0
    1.1924    2.4086   -0.0000 N   0  0  0  0  0  0  0  0  0  0  0  0
    1.9436   -1.4070   -0.0000 C   0  0  0  0  0  0  0  0  0  0  0  0
   -0.3339   -2.6828   -0.0000 C   0  0  0  0  0  0  0  0  0  0  0  0
   -0.1192    3.1836   -0.0000 C   0  0  0  0  0  0  0  0  0  0  0  0
    2.8140   -2.5994   -0.0000 C   0  0  0  0  0  0  0  0  0  0  0  0
   -1.8482   -2.6471   -0.0000 O   0  0  0  0  0  0  0  0  0  0  0  0
    0.3816   -3.9825   -0.0000 C   0  0  0  0  0  0  0  0  0  0  0  0
   -1.4308    2.4444   -0.0000 O   0  0  0  0  0  0  0  0  0  0  0  0
   -0.1312    4.6979   -0.0000 N   0  0  0  0  0  0  0  0  0  0  0  0
   -1.4428    5.4610   -0.0000 C   0  0  0  0  0  0  0  0  0  0  0  0
   -1.4547    6.9753   -0.0000 C   0  0  0  0  0  0  0  0  0  0  0  0
   -2.7544    4.7337   -0.0000 C   0  0  0  0  0  0  0  0  0  0  0  0
   -2.7663    7.7504   -0.0000 C   0  0  0  0  0  0  0  0  0  0  0  0
   -0.1550    7.7385   -0.0000 C   0  0  0  0  0  0  0  0  0  0  0  0
   -4.0660    5.4849   -0.0000 C   0  0  0  0  0  0  0  0  0  0  0  0
   -4.0779    6.9992   -0.0000 N   0  0  0  0  0  0  0  0  0  0  0  0
    1.1327    6.9873   -0.0000 N   0  0  0  0  0  0  0  0  0  0  0  0
   -5.3895    7.7504   -0.0000 C   0  0  0  0  0  0  0  0  0  0  0  0
    2.4205    7.7504   -0.0000 C   0  0  0  0  0  0  0  0  0  0  0  0
    1.1208    5.4849   -0.0000 C   0  0  0  0  0  0  0  0  0  0  0  0
   -5.4014    9.2647   -0.0000 O   0  0  0  0  0  0  0  0  0  0  0  0
   -6.6892    7.0111   -0.0000 C   0  0  0  0  0  0  0  0  0  0  0  0
    3.7083    6.9992   -0.0000 C   0  0  0  0  0  0  0  0  0  0  0  0
    2.4086    4.7456   -0.0000 C   0  0  0  0  0  0  0  0  0  0  0  0
   -8.0008    7.7623   -0.0000 C   0  0  0  0  0  0  0  0  0  0  0  0
   -6.7011    5.5207   -0.0000 C   0  0  0  0  0  0  0  0  0  0  0  0
    3.6844    5.5087   -0.0000 C   0  0  0  0  0  0  0  0  0  0  0  0
    5.0079    7.7623   -0.0000 C   0  0  0  0  0  0  0  0  0  0  0  0
    6.2957    7.0111   -0.0000 C   0  0  0  0  0  0  0  0  0  0  0  0
    6.2599    5.5207   -0.0000 C   0  0  0  0  0  0  0  0  0  0  0  0
    7.5835    7.7742   -0.0000 C   0  0  0  0  0  0  0  0  0  0  0  0
    7.5477    4.7814   -0.0000 C   0  0  0  0  0  0  0  0  0  0  0  0
    8.8712    7.0230   -0.0000 C   0  0  0  0  0  0  0  0  0  0  0  0
    8.8474    5.5326   -0.0000 C   0  0  0  0  0  0  0  0  0  0  0  0
   10.1351    4.7933   -0.0000 F   0  0  0  0  0  0  0  0  0  0  0  0
  1  2  1  0
  1  3  1  0
  2  4  2  0
  2  5  1  0
  3  6  2  0
  3  7  1  0
  5  8  1  0
  6  9  1  0
  7 10  2  0
  7 11  1  0
  8 12  2  0
  8 13  1  0
 14 13  1  6
 14 15  1  0
 14 16  1  0
 15 17  1  0
 15 18  1  1
 16 19  1  0
 17 20  1  0
 18 21  1  0
 20 22  1  0
 21 23  1  0
 21 24  1  0
 22 25  2  0
 22 26  1  0
 23 27  1  0
 24 28  1  0
 26 29  1  0
 26 30  1  0
 27 31  1  0
 27 32  1  6
 32 33  1  0
 33 34  2  0
 33 35  1  0
 34 36  1  0
 35 37  2  0
 36 38  2  0
 38 39  1  0
  4  6  1  0
 19 20  1  0
 28 31  1  0
 37 38  1  0
M  END
>  <MolRegNo>  (1) 
421480

>  <m>  (1) 
=

>  <Value>  (1) 
50

>  <Unit>  (1) 
nM

>  <Type>  (1) 
IC50

>  <pValue>  (1) 
7.3

>  <Ligand Efficiency>  (1) 
0

>  <Binding Efficiency>  (1) 
0

>  <Surface Efficiency>  (1) 
0

>  <Assay Index>  (1) 
307824

>  <Assay Category>  (1) 


>  <Assay Organism>  (1) 
Homo sapiens

>  <Target ID>  (1) 
11365

>  <Target Name>  (1) 
Cytochrome P450 2D6

>  <Target Organism>  (1) 
Homo sapiens

>  <Target Description>  (1) 
Target is a single protein chain

>  <Sequence Accession>  (1) 
P10635

>  <Reference>  (1) 
Bioorg Med Chem Lett 17 (11), 2992-2997 (2007)

>  <Pubmed ID>  (1) 
17418570

>  <DOI>  (1) 
10.1016/j.bmcl.2007.03.065

$$$$
