4wnv_ligand_710
     RDKit          2D

 25 27  0  0  0  0  0  0  0  0999 V2000
    0.0000   -0.0000   -0.0000 O   0  0  0  0  0  0  0  0  0  0  0  0
   -1.3075    0.7607   -0.0000 C   0  0  0  0  0  0  0  0  0  0  0  0
   -1.3194    2.2702   -0.0000 O   0  0  0  0  0  0  0  0  0  0  0  0
   -2.6149    0.0238   -0.0000 N   0  0  0  0  0  0  0  0  0  0  0  0
   -0.0357    3.0309   -0.0000 C   0  0  0  0  0  0  0  0  0  0  0  0
   -2.6387   -1.4620   -0.0000 C   0  0  0  0  0  0  0  0  0  0  0  0
   -3.9224    0.7726   -0.0000 C   0  0  0  0  0  0  0  0  0  0  0  0
    1.2480    2.2940   -0.0000 C   0  0  0  0  0  0  0  0  0  0  0  0
   -1.4620   -2.3416   -0.0000 C   0  0  0  0  0  0  0  0  0  0  0  0
   -3.8749   -2.3178   -0.0000 C   0  0  0  0  0  0  0  0  0  0  0  0
   -5.2299    0.0238   -0.0000 C   0  0  0  0  0  0  0  0  0  0  0  0
   -1.9493   -3.7441   -0.0000 N   0  0  0  0  0  0  0  0  0  0  0  0
   -3.4351   -3.7322   -0.0000 C   0  0  0  0  0  0  0  0  0  0  0  0
   -6.5492    0.7726   -0.0000 C   0  0  0  0  0  0  0  0  0  0  0  0
   -5.2418   -1.4739   -0.0000 C   0  0  0  0  0  0  0  0  0  0  0  0
   -6.5730    2.2821   -0.0000 O   0  0  0  0  0  0  0  0  0  0  0  0
   -7.8448    0.0357   -0.0000 C   0  0  0  0  0  0  0  0  0  0  0  0
   -6.5611   -2.2108   -0.0000 C   0  0  0  0  0  0  0  0  0  0  0  0
   -7.8805    3.0428   -0.0000 C   0  0  0  0  0  0  0  0  0  0  0  0
   -7.8567   -1.4501   -0.0000 C   0  0  0  0  0  0  0  0  0  0  0  0
   -7.8923    4.5524   -0.0000 C   0  0  0  0  0  0  0  0  0  0  0  0
   -9.1760    2.2940   -0.0000 C   0  0  0  0  0  0  0  0  0  0  0  0
   -9.1998    5.3131   -0.0000 C   0  0  0  0  0  0  0  0  0  0  0  0
  -10.4835    3.0428   -0.0000 C   0  0  0  0  0  0  0  0  0  0  0  0
  -10.5073    4.5642   -0.0000 C   0  0  0  0  0  0  0  0  0  0  0  0
  1  2  2  0
  2  3  1  0
  2  4  1  0
  3  5  1  0
  6  4  1  6
  4  7  1  0
  5  8  1  0
  6  9  1  0
  6 10  1  0
  7 11  1  0
  9 12  1  0
 10 13  1  0
 11 14  1  0
 11 15  2  0
 14 16  1  0
 14 17  2  0
 15 18  1  0
 16 19  1  0
 17 20  1  0
 19 21  2  0
 19 22  1  0
 21 23  1  0
 22 24  2  0
 23 25  2  0
 12 13  1  0
 18 20  2  0
 24 25  1  0
M  END
>  <MolRegNo>  (1) 
489690

>  <m>  (1) 
=

>  <Value>  (1) 
420

>  <Unit>  (1) 
nM

>  <Type>  (1) 
IC50

>  <pValue>  (1) 
6.38

>  <Ligand Efficiency>  (1) 
0

>  <Binding Efficiency>  (1) 
0

>  <Surface Efficiency>  (1) 
0

>  <Assay Index>  (1) 
339261

>  <Assay Category>  (1) 


>  <Assay Organism>  (1) 


>  <Target ID>  (1) 
11365

>  <Target Name>  (1) 
Cytochrome P450 2D6

>  <Target Organism>  (1) 
Homo sapiens

>  <Target Description>  (1) 
Target is a single protein chain

>  <Sequence Accession>  (1) 
P10635

>  <Reference>  (1) 
Bioorg Med Chem Lett 18 (15), 4355-4359 (2008)

>  <Pubmed ID>  (1) 
18621528

>  <DOI>  (1) 
10.1016/j.bmcl.2008.06.071

$$$$
