4wnv_ligand_1062
     RDKit          2D

 39 44  0  0  0  0  0  0  0  0999 V2000
    0.0000   -0.0000   -0.0000 O   0  0  0  0  0  0  0  0  0  0  0  0
    0.2859   -1.4651   -0.0000 C   0  0  0  0  0  0  0  0  0  0  0  0
    1.6438   -2.0726   -0.0000 N   0  0  0  0  0  0  0  0  0  0  0  0
   -0.7385   -2.5609   -0.0000 N   0  0  0  0  0  0  0  0  0  0  0  0
    1.4532   -3.5496   -0.0000 C   0  0  0  0  0  0  0  0  0  0  0  0
    2.9421   -1.3222   -0.0000 C   0  0  0  0  0  0  0  0  0  0  0  0
    0.0000   -3.8593   -0.0000 C   0  0  0  0  0  0  0  0  0  0  0  0
   -2.2513   -2.3823   -0.0000 C   0  0  0  0  0  0  0  0  0  0  0  0
    2.4418   -4.6454   -0.0000 C   0  0  0  0  0  0  0  0  0  0  0  0
    2.9421    0.1906   -0.0000 C   0  0  0  0  0  0  0  0  0  0  0  0
    4.2285   -2.0726   -0.0000 C   0  0  0  0  0  0  0  0  0  0  0  0
   -0.4765   -5.2648   -0.0000 C   0  0  0  0  0  0  0  0  0  0  0  0
   -2.8706   -0.9886   -0.0000 C   0  0  0  0  0  0  0  0  0  0  0  0
    1.9654   -6.0510   -0.0000 C   0  0  0  0  0  0  0  0  0  0  0  0
    4.2285    0.9410   -0.0000 C   0  0  0  0  0  0  0  0  0  0  0  0
    5.5269   -1.3222   -0.0000 C   0  0  0  0  0  0  0  0  0  0  0  0
    0.5122   -6.3726   -0.0000 C   0  0  0  0  0  0  0  0  0  0  0  0
   -4.3834   -0.8100   -0.0000 N   0  0  0  0  0  0  0  0  0  0  0  0
    5.5269    0.1906   -0.0000 N   0  0  0  0  0  0  0  0  0  0  0  0
   -4.9909    0.5717   -0.0000 C   0  0  0  0  0  0  0  0  0  0  0  0
   -5.2887   -2.0130   -0.0000 C   0  0  0  0  0  0  0  0  0  0  0  0
    6.8252    0.9529   -0.0000 C   0  0  0  0  0  0  0  0  0  0  0  0
   -6.4917    0.7504   -0.0000 C   0  0  0  0  0  0  0  0  0  0  0  0
   -6.8014   -1.8224   -0.0000 C   0  0  0  0  0  0  0  0  0  0  0  0
    6.8252    2.4657   -0.0000 O   0  0  0  0  0  0  0  0  0  0  0  0
    8.1117    0.2025   -0.0000 C   0  0  0  0  0  0  0  0  0  0  0  0
   -7.4089   -0.4407   -0.0000 C   0  0  0  0  0  0  0  0  0  0  0  0
    9.4100    0.9648   -0.0000 C   0  0  0  0  0  0  0  0  0  0  0  0
    8.0997   -1.2983   -0.0000 C   0  0  0  0  0  0  0  0  0  0  0  0
   10.6964    0.2263   -0.0000 C   0  0  0  0  0  0  0  0  0  0  0  0
    9.3862   -2.0488   -0.0000 C   0  0  0  0  0  0  0  0  0  0  0  0
   10.6726   -1.2745   -0.0000 N   0  0  0  0  0  0  0  0  0  0  0  0
   11.9590   -2.0130   -0.0000 C   0  0  0  0  0  0  0  0  0  0  0  0
   13.2455   -1.2507   -0.0000 C   0  0  0  0  0  0  0  0  0  0  0  0
   13.2335    0.2740   -0.0000 C   0  0  0  0  0  0  0  0  0  0  0  0
   14.5319   -1.9892   -0.0000 C   0  0  0  0  0  0  0  0  0  0  0  0
   14.5200    1.0363   -0.0000 C   0  0  0  0  0  0  0  0  0  0  0  0
   15.8302   -1.2269   -0.0000 C   0  0  0  0  0  0  0  0  0  0  0  0
   15.8183    0.2978   -0.0000 N   0  0  0  0  0  0  0  0  0  0  0  0
  1  2  2  0
  2  3  1  0
  2  4  1  0
  3  5  1  0
  3  6  1  0
  4  7  1  0
  4  8  1  0
  5  9  2  0
  6 10  1  0
  6 11  1  0
  7 12  2  0
  8 13  1  0
  9 14  1  0
 10 15  1  0
 11 16  1  0
 12 17  1  0
 13 18  1  0
 15 19  1  0
 18 20  1  0
 18 21  1  0
 19 22  1  0
 20 23  1  0
 21 24  1  0
 22 25  2  0
 22 26  1  0
 23 27  1  0
 26 28  1  0
 26 29  1  0
 28 30  1  0
 29 31  1  0
 30 32  1  0
 32 33  1  0
 33 34  1  0
 34 35  2  0
 34 36  1  0
 35 37  1  0
 36 38  2  0
 37 39  2  0
  5  7  1  0
 14 17  2  0
 16 19  1  0
 24 27  1  0
 31 32  1  0
 38 39  1  0
M  END
>  <MolRegNo>  (1) 
689304

>  <m>  (1) 
=

>  <Value>  (1) 
3700

>  <Unit>  (1) 
nM

>  <Type>  (1) 
IC50

>  <pValue>  (1) 
5.43

>  <Ligand Efficiency>  (1) 
0

>  <Binding Efficiency>  (1) 
0

>  <Surface Efficiency>  (1) 
0

>  <Assay Index>  (1) 
497181

>  <Assay Category>  (1) 


>  <Assay Organism>  (1) 
Homo sapiens

>  <Target ID>  (1) 
11365

>  <Target Name>  (1) 
Cytochrome P450 2D6

>  <Target Organism>  (1) 
Homo sapiens

>  <Target Description>  (1) 
Target is a single protein chain

>  <Sequence Accession>  (1) 
P10635

>  <Reference>  (1) 
Bioorg Med Chem Lett 20 (17), 5004-5008 (2010)

>  <Pubmed ID>  (1) 
20685118

>  <DOI>  (1) 
10.1016/j.bmcl.2010.07.052

$$$$
