4wnv_ligand_125
     RDKit          2D

 28 30  0  0  0  0  0  0  0  0999 V2000
    0.0000   -0.0000   -0.0000 O   0  0  0  0  0  0  0  0  0  0  0  0
    0.0000   -1.4930   -0.0000 C   0  0  0  0  0  0  0  0  0  0  0  0
    1.2899    0.7644   -0.0000 C   0  0  0  0  0  0  0  0  0  0  0  0
   -1.3138   -2.2454   -0.0000 C   0  0  0  0  0  0  0  0  0  0  0  0
    1.2899   -2.2335   -0.0000 C   0  0  0  0  0  0  0  0  0  0  0  0
    2.5799    0.0239   -0.0000 C   0  0  0  0  0  0  0  0  0  0  0  0
   -2.6277   -1.4810   -0.0000 C   0  0  0  0  0  0  0  0  0  0  0  0
   -1.3258   -3.7384   -0.0000 C   0  0  0  0  0  0  0  0  0  0  0  0
    1.2780   -3.7384   -0.0000 C   0  0  0  0  0  0  0  0  0  0  0  0
    2.5679   -1.4691   -0.0000 O   0  0  0  0  0  0  0  0  0  0  0  0
    3.8698    0.8002   -0.0000 C   0  0  0  0  0  0  0  0  0  0  0  0
   -3.9534   -0.7166   -0.0000 N   0  0  0  0  0  0  0  0  0  0  0  0
   -0.0358   -4.4790   -0.0000 C   0  0  0  0  0  0  0  0  0  0  0  0
    5.1598    0.0597   -0.0000 N   0  0  0  0  0  0  0  0  0  0  0  0
    6.4497    0.8361   -0.0000 C   0  0  0  0  0  0  0  0  0  0  0  0
    7.7396    1.6005   -0.0000 C   0  0  0  0  0  0  0  0  0  0  0  0
    7.7396    0.0956   -0.0000 C   0  0  0  0  0  0  0  0  0  0  0  0
    6.8200    2.3052   -0.0000 C   0  0  0  0  0  0  0  0  0  0  0  0
    8.8026    0.5494   -0.0000 C   0  0  0  0  0  0  0  0  0  0  0  0
    9.9970    1.4452   -0.0000 C   0  0  0  0  0  0  0  0  0  0  0  0
    9.2446   -0.8600   -0.0000 C   0  0  0  0  0  0  0  0  0  0  0  0
   11.2034    0.5733   -0.0000 C   0  0  0  0  0  0  0  0  0  0  0  0
   10.1404    2.9621   -0.0000 C   0  0  0  0  0  0  0  0  0  0  0  0
   10.7376   -0.8480   -0.0000 N   0  0  0  0  0  0  0  0  0  0  0  0
   12.5650    1.1944   -0.0000 C   0  0  0  0  0  0  0  0  0  0  0  0
   11.4900    3.5832   -0.0000 C   0  0  0  0  0  0  0  0  0  0  0  0
   12.7083    2.7113   -0.0000 C   0  0  0  0  0  0  0  0  0  0  0  0
   11.6333    5.0881   -0.0000 O   0  0  0  0  0  0  0  0  0  0  0  0
  1  2  1  0
  1  3  1  0
  2  4  2  0
  2  5  1  0
  3  6  1  0
  4  7  1  0
  4  8  1  0
  5  9  2  0
  6 10  1  0
  6 11  1  0
  7 12  3  0
  8 13  2  0
 11 14  1  0
 14 15  1  0
 15 16  1  0
 15 17  1  0
 15 18  1  0
 16 19  1  0
 19 20  1  0
 19 21  2  0
 20 22  2  0
 20 23  1  0
 21 24  1  0
 22 25  1  0
 23 26  2  0
 25 27  2  0
 26 28  1  0
  9 13  1  0
 22 24  1  0
 26 27  1  0
M  END
>  <MolRegNo>  (1) 
301222

>  <m>  (1) 
=

>  <Value>  (1) 
80

>  <Unit>  (1) 
nM

>  <Type>  (1) 
IC50

>  <pValue>  (1) 
7.1

>  <Ligand Efficiency>  (1) 
0

>  <Binding Efficiency>  (1) 
0

>  <Surface Efficiency>  (1) 
0

>  <Assay Index>  (1) 
238811

>  <Assay Category>  (1) 


>  <Assay Organism>  (1) 
Homo sapiens

>  <Target ID>  (1) 
11365

>  <Target Name>  (1) 
Cytochrome P450 2D6

>  <Target Organism>  (1) 
Homo sapiens

>  <Target Description>  (1) 
Target is a single protein chain

>  <Sequence Accession>  (1) 
P10635

>  <Reference>  (1) 
Bioorg Med Chem Lett 15 (17), 3816-3820 (2005)

>  <Pubmed ID>  (1) 
15993593

>  <DOI>  (1) 
10.1016/j.bmcl.2005.06.007

$$$$
