4wnv_ligand_753
     RDKit          2D

 22 24  0  0  0  0  0  0  0  0999 V2000
    0.0000   -0.0000   -0.0000 F   0  0  0  0  0  0  0  0  0  0  0  0
    0.4511    1.4364   -0.0000 C   0  0  0  0  0  0  0  0  0  0  0  0
   -0.5579    2.5642   -0.0000 C   0  0  0  0  0  0  0  0  0  0  0  0
    1.8994    1.7569   -0.0000 C   0  0  0  0  0  0  0  0  0  0  0  0
   -2.0300    2.2674   -0.0000 O   0  0  0  0  0  0  0  0  0  0  0  0
   -0.1187    3.9887   -0.0000 C   0  0  0  0  0  0  0  0  0  0  0  0
    2.3505    3.1933   -0.0000 C   0  0  0  0  0  0  0  0  0  0  0  0
   -2.5048    0.8547   -0.0000 C   0  0  0  0  0  0  0  0  0  0  0  0
    1.3296    4.3211   -0.0000 C   0  0  0  0  0  0  0  0  0  0  0  0
   -1.1396    5.1046   -0.0000 C   0  0  0  0  0  0  0  0  0  0  0  0
   -3.9531    0.4036   -0.0000 C   0  0  0  0  0  0  0  0  0  0  0  0
   -1.6263   -0.3561   -0.0000 C   0  0  0  0  0  0  0  0  0  0  0  0
   -3.9649   -1.0921   -0.0000 C   0  0  0  0  0  0  0  0  0  0  0  0
   -5.2589    1.1634   -0.0000 C   0  0  0  0  0  0  0  0  0  0  0  0
   -0.5817    0.7241   -0.0000 O   0  0  0  0  0  0  0  0  0  0  0  0
   -2.5285   -1.5670   -0.0000 C   0  0  0  0  0  0  0  0  0  0  0  0
   -0.3443   -1.0921   -0.0000 C   0  0  0  0  0  0  0  0  0  0  0  0
   -5.2708   -1.8281   -0.0000 C   0  0  0  0  0  0  0  0  0  0  0  0
   -6.5647    0.4274   -0.0000 C   0  0  0  0  0  0  0  0  0  0  0  0
   -0.3561   -2.5760   -0.0000 N   0  0  0  0  0  0  0  0  0  0  0  0
   -6.5766   -1.0684   -0.0000 C   0  0  0  0  0  0  0  0  0  0  0  0
    0.9259   -3.3120   -0.0000 C   0  0  0  0  0  0  0  0  0  0  0  0
  1  2  1  0
  2  3  2  0
  2  4  1  0
  3  5  1  0
  3  6  1  0
  4  7  2  0
  8  5  1  6
  6  9  2  0
  6 10  1  0
  8 11  1  0
  8 12  1  0
 11 13  2  0
 11 14  1  0
 12 15  1  1
 12 16  1  0
 12 17  1  0
 13 18  1  0
 14 19  2  0
 17 20  1  0
 18 21  2  0
 20 22  1  0
  7  9  1  0
 13 16  1  0
 19 21  1  0
M  END
>  <MolRegNo>  (1) 
452584

>  <m>  (1) 
=

>  <Value>  (1) 
1000

>  <Unit>  (1) 
nM

>  <Type>  (1) 
IC50

>  <pValue>  (1) 
6

>  <Ligand Efficiency>  (1) 
0

>  <Binding Efficiency>  (1) 
0

>  <Surface Efficiency>  (1) 
0

>  <Assay Index>  (1) 
407281

>  <Assay Category>  (1) 


>  <Assay Organism>  (1) 


>  <Target ID>  (1) 
11365

>  <Target Name>  (1) 
Cytochrome P450 2D6

>  <Target Organism>  (1) 
Homo sapiens

>  <Target Description>  (1) 
Target is a single protein chain

>  <Sequence Accession>  (1) 
P10635

>  <Reference>  (1) 
Bioorg Med Chem Lett 18 (23), 6151-6155 (2008)

>  <Pubmed ID>  (1) 
18954981

>  <DOI>  (1) 
10.1016/j.bmcl.2008.10.013

$$$$
