4wnv_ligand_53
     RDKit          2D

 55 60  0  0  1  0  0  0  0  0999 V2000
    0.0000   -0.0000   -0.0000 Cl  0  0  0  0  0  0  0  0  0  0  0  0
   -1.5067   -0.1424   -0.0000 C   0  0  0  0  0  0  0  0  0  0  0  0
   -2.1355   -1.5067   -0.0000 C   0  0  0  0  0  0  0  0  0  0  0  0
   -2.4084    1.0915   -0.0000 C   0  0  0  0  0  0  0  0  0  0  0  0
   -1.2576   -2.7168   -0.0000 C   0  0  0  0  0  0  0  0  0  0  0  0
   -3.6422   -1.6491   -0.0000 C   0  0  0  0  0  0  0  0  0  0  0  0
   -3.9151    0.9491   -0.0000 C   0  0  0  0  0  0  0  0  0  0  0  0
   -1.7321   -4.1405   -0.0000 O   0  0  0  0  0  0  0  0  0  0  0  0
    0.2373   -2.7050   -0.0000 C   0  0  0  0  0  0  0  0  0  0  0  0
   -4.5439   -0.4152   -0.0000 N   0  0  0  0  0  0  0  0  0  0  0  0
   -0.5220   -5.0184   -0.0000 C   0  0  0  0  0  0  0  0  0  0  0  0
    0.6881   -4.1286   -0.0000 N   0  0  0  0  0  0  0  0  0  0  0  0
   -0.5339   -6.5133   -0.0000 C   0  0  0  0  0  0  0  0  0  0  0  0
   -0.5457   -8.0081   -0.0000 N   0  0  0  0  0  0  0  0  0  0  0  0
    0.9610   -6.5014   -0.0000 C   0  0  0  0  0  0  0  0  0  0  0  0
   -2.0524   -6.5014   -0.0000 C   0  0  0  0  0  0  0  0  0  0  0  0
   -1.8626   -8.7437   -0.0000 C   0  0  0  0  0  0  0  0  0  0  0  0
    0.7474   -8.7437   -0.0000 C   0  0  0  0  0  0  0  0  0  0  0  0
   -1.8745  -10.2385   -0.0000 C   0  0  0  0  0  0  0  0  0  0  0  0
    0.7356  -10.2385   -0.0000 C   0  0  0  0  0  0  0  0  0  0  0  0
   -0.5813  -10.9859   -0.0000 N   0  0  0  0  0  0  0  0  0  0  0  0
   -3.1914  -10.9859   -0.0000 C   0  0  0  0  0  0  0  0  0  0  0  0
   -0.5932  -12.4808   -0.0000 C   0  0  0  0  0  0  0  0  0  0  0  0
   -4.5083  -10.2266   -0.0000 O   0  0  0  0  0  0  0  0  0  0  0  0
   -3.2032  -12.4808   -0.0000 N   0  0  0  0  0  0  0  0  0  0  0  0
    0.7000  -13.2163   -0.0000 C   0  0  0  0  0  0  0  0  0  0  0  0
   -4.5201  -13.2163   -0.0000 C   0  0  0  0  0  0  0  0  0  0  0  0
    1.9931  -12.4570   -0.0000 O   0  0  0  0  0  0  0  0  0  0  0  0
    0.6881  -14.7112   -0.0000 C   0  0  0  0  0  0  0  0  0  0  0  0
   -4.5320  -14.7112   -0.0000 C   0  0  0  0  0  0  0  0  0  0  0  0
    1.9813  -15.4586   -0.0000 C   0  0  0  0  0  0  0  0  0  0  0  0
   -4.5439  -16.2060   -0.0000 F   0  0  0  0  0  0  0  0  0  0  0  0
   -6.0506  -14.6993   -0.0000 F   0  0  0  0  0  0  0  0  0  0  0  0
   -3.0371  -14.6993   -0.0000 F   0  0  0  0  0  0  0  0  0  0  0  0
    1.9694  -16.9535   -0.0000 C   0  0  0  0  0  0  0  0  0  0  0  0
    3.2744  -14.6993   -0.0000 C   0  0  0  0  0  0  0  0  0  0  0  0
    0.6525  -17.6890   -0.0000 O   0  0  0  0  0  0  0  0  0  0  0  0
    3.2626  -17.6890   -0.0000 N   0  0  0  0  0  0  0  0  0  0  0  0
    4.5676  -15.4467   -0.0000 C   0  0  0  0  0  0  0  0  0  0  0  0
    3.2507  -19.1839   -0.0000 C   0  0  0  0  0  0  0  0  0  0  0  0
    4.5557  -16.9416   -0.0000 C   0  0  0  0  0  0  0  0  0  0  0  0
    5.8607  -14.6875   -0.0000 C   0  0  0  0  0  0  0  0  0  0  0  0
    4.5439  -19.9194   -0.0000 C   0  0  0  0  0  0  0  0  0  0  0  0
    1.9338  -19.9194   -0.0000 C   0  0  0  0  0  0  0  0  0  0  0  0
    5.8489  -17.6771   -0.0000 C   0  0  0  0  0  0  0  0  0  0  0  0
    7.1539  -15.4349   -0.0000 C   0  0  0  0  0  0  0  0  0  0  0  0
    4.5320  -21.4143   -0.0000 C   0  0  0  0  0  0  0  0  0  0  0  0
    5.8370  -19.1601   -0.0000 C   0  0  0  0  0  0  0  0  0  0  0  0
    0.6169  -19.1601   -0.0000 O   0  0  0  0  0  0  0  0  0  0  0  0
    1.9219  -21.4143   -0.0000 C   0  0  0  0  0  0  0  0  0  0  0  0
    7.1420  -16.9179   -0.0000 C   0  0  0  0  0  0  0  0  0  0  0  0
    3.2151  -22.1498   -0.0000 O   0  0  0  0  0  0  0  0  0  0  0  0
    5.8252  -22.1498   -0.0000 C   0  0  0  0  0  0  0  0  0  0  0  0
    7.1302  -19.8957   -0.0000 C   0  0  0  0  0  0  0  0  0  0  0  0
    7.1183  -21.3905   -0.0000 C   0  0  0  0  0  0  0  0  0  0  0  0
  1  2  1  0
  2  3  2  0
  2  4  1  0
  3  5  1  0
  3  6  1  0
  4  7  2  0
  5  8  1  0
  5  9  2  0
  6 10  2  0
  8 11  1  0
  9 12  1  0
 11 13  1  0
 13 14  1  0
 13 15  1  0
 13 16  1  0
 14 17  1  0
 14 18  1  0
 17 19  1  0
 18 20  1  0
 19 21  1  0
 19 22  1  6
 21 23  1  0
 22 24  2  0
 22 25  1  0
 23 26  1  0
 25 27  1  0
 26 28  1  1
 26 29  1  0
 27 30  1  0
 31 29  1  1
 30 32  1  0
 30 33  1  0
 30 34  1  0
 31 35  1  0
 31 36  1  0
 35 37  2  0
 35 38  1  0
 36 39  1  0
 40 38  1  1
 39 41  2  0
 39 42  1  0
 40 43  1  0
 40 44  1  0
 41 45  1  0
 42 46  2  0
 43 47  2  0
 43 48  1  0
 44 49  1  1
 44 50  1  0
 45 51  2  0
 47 52  1  0
 47 53  1  0
 48 54  2  0
 53 55  2  0
  7 10  1  0
 11 12  2  0
 20 21  1  0
 46 51  1  0
 50 52  1  0
 54 55  1  0
M  END
>  <MolRegNo>  (1) 
2038628

>  <m>  (1) 
=

>  <Value>  (1) 
4170

>  <Unit>  (1) 
nM

>  <Type>  (1) 
IC50

>  <pValue>  (1) 
5.38

>  <Ligand Efficiency>  (1) 
0

>  <Binding Efficiency>  (1) 
0

>  <Surface Efficiency>  (1) 
0

>  <Assay Index>  (1) 
51635

>  <Assay Category>  (1) 


>  <Assay Organism>  (1) 
Homo sapiens

>  <Target ID>  (1) 
11365

>  <Target Name>  (1) 
Cytochrome P450 2D6

>  <Target Organism>  (1) 
Homo sapiens

>  <Target Description>  (1) 
Target is a single protein chain

>  <Sequence Accession>  (1) 
P10635

>  <Reference>  (1) 
Bioorg Med Chem Lett 13 (15), 2573-2576 (2003)

>  <Pubmed ID>  (1) 
12852969

>  <DOI>  (1) 
10.1016/s0960-894x(03)00474-8

$$$$
