4wnv_ligand_732
     RDKit          2D

 37 40  0  0  0  0  0  0  0  0999 V2000
    0.0000   -0.0000   -0.0000 S   0  0  0  0  0  0  0  0  0  0  0  0
   -0.4841    1.4286   -0.0000 C   0  0  0  0  0  0  0  0  0  0  0  0
    1.4876    0.0236   -0.0000 C   0  0  0  0  0  0  0  0  0  0  0  0
    0.7084    2.3258   -0.0000 N   0  0  0  0  0  0  0  0  0  0  0  0
   -1.7946    2.1724   -0.0000 N   0  0  0  0  0  0  0  0  0  0  0  0
    1.9244    1.4640   -0.0000 C   0  0  0  0  0  0  0  0  0  0  0  0
   -1.8182    3.6836   -0.0000 C   0  0  0  0  0  0  0  0  0  0  0  0
    3.3294    1.9480   -0.0000 C   0  0  0  0  0  0  0  0  0  0  0  0
   -0.5431    4.4510   -0.0000 O   0  0  0  0  0  0  0  0  0  0  0  0
   -3.1287    4.4274   -0.0000 N   0  0  0  0  0  0  0  0  0  0  0  0
    4.7580    2.3613   -0.0000 C   0  0  0  0  0  0  0  0  0  0  0  0
    2.8807    3.3884   -0.0000 C   0  0  0  0  0  0  0  0  0  0  0  0
    3.7544    0.5313   -0.0000 C   0  0  0  0  0  0  0  0  0  0  0  0
   -4.4274    3.6836   -0.0000 C   0  0  0  0  0  0  0  0  0  0  0  0
   -5.7497    4.4274   -0.0000 C   0  0  0  0  0  0  0  0  0  0  0  0
   -4.4274    2.2078   -0.0000 C   0  0  0  0  0  0  0  0  0  0  0  0
   -3.1523    2.9516   -0.0000 C   0  0  0  0  0  0  0  0  0  0  0  0
   -7.0484    3.6954   -0.0000 O   0  0  0  0  0  0  0  0  0  0  0  0
   -5.7615    5.9386   -0.0000 C   0  0  0  0  0  0  0  0  0  0  0  0
   -5.7261    1.4640   -0.0000 N   0  0  0  0  0  0  0  0  0  0  0  0
   -7.0484    2.2078   -0.0000 C   0  0  0  0  0  0  0  0  0  0  0  0
   -7.0720    6.6942   -0.0000 N   0  0  0  0  0  0  0  0  0  0  0  0
   -5.7261   -0.0236   -0.0000 C   0  0  0  0  0  0  0  0  0  0  0  0
   -8.3471    1.4640   -0.0000 O   0  0  0  0  0  0  0  0  0  0  0  0
   -8.3707    5.9622   -0.0000 C   0  0  0  0  0  0  0  0  0  0  0  0
   -7.0838    8.2054   -0.0000 C   0  0  0  0  0  0  0  0  0  0  0  0
   -9.6694    6.7178   -0.0000 C   0  0  0  0  0  0  0  0  0  0  0  0
   -8.3825    8.9728   -0.0000 C   0  0  0  0  0  0  0  0  0  0  0  0
   -9.6812    8.2290   -0.0000 C   0  0  0  0  0  0  0  0  0  0  0  0
  -10.9799    5.9858   -0.0000 C   0  0  0  0  0  0  0  0  0  0  0  0
  -12.2904    6.7414   -0.0000 C   0  0  0  0  0  0  0  0  0  0  0  0
  -12.3022    8.2408   -0.0000 C   0  0  0  0  0  0  0  0  0  0  0  0
  -13.5891    5.9976   -0.0000 C   0  0  0  0  0  0  0  0  0  0  0  0
  -13.6127    8.9964   -0.0000 C   0  0  0  0  0  0  0  0  0  0  0  0
  -14.8996    6.7532   -0.0000 C   0  0  0  0  0  0  0  0  0  0  0  0
  -14.9232    8.2644   -0.0000 C   0  0  0  0  0  0  0  0  0  0  0  0
  -16.2337    9.0200   -0.0000 F   0  0  0  0  0  0  0  0  0  0  0  0
  1  2  1  0
  1  3  1  0
  2  4  2  0
  2  5  1  0
  3  6  2  0
  5  7  1  0
  6  8  1  0
  7  9  2  0
  7 10  1  0
  8 11  1  0
  8 12  1  0
  8 13  1  0
 10 14  1  0
 14 15  1  0
 14 16  1  0
 14 17  1  0
 15 18  1  0
 15 19  1  0
 16 20  1  0
 18 21  1  0
 19 22  1  0
 20 23  1  0
 21 24  2  0
 22 25  1  0
 22 26  1  0
 25 27  1  0
 26 28  1  0
 27 29  1  0
 27 30  1  1
 30 31  1  0
 31 32  2  0
 31 33  1  0
 32 34  1  0
 33 35  2  0
 34 36  2  0
 36 37  1  0
  4  6  1  0
 20 21  1  0
 28 29  1  0
 35 36  1  0
M  END
>  <MolRegNo>  (1) 
472538

>  <m>  (1) 
=

>  <Value>  (1) 
40000

>  <Unit>  (1) 
nM

>  <Type>  (1) 
IC50

>  <pValue>  (1) 
4.4

>  <Ligand Efficiency>  (1) 
0

>  <Binding Efficiency>  (1) 
0

>  <Surface Efficiency>  (1) 
0

>  <Assay Index>  (1) 
409097

>  <Assay Category>  (1) 


>  <Assay Organism>  (1) 


>  <Target ID>  (1) 
11365

>  <Target Name>  (1) 
Cytochrome P450 2D6

>  <Target Organism>  (1) 
Homo sapiens

>  <Target Description>  (1) 
Target is a single protein chain

>  <Sequence Accession>  (1) 
P10635

>  <Reference>  (1) 
Bioorg Med Chem Lett 19 (1), 96-99 (2009)

>  <Pubmed ID>  (1) 
19010676

>  <DOI>  (1) 
10.1016/j.bmcl.2008.11.002

$$$$
