4wnv_ligand_611
     RDKit          2D

 36 39  0  0  0  0  0  0  0  0999 V2000
    0.0000   -0.0000   -0.0000 F   0  0  0  0  0  0  0  0  0  0  0  0
   -0.0238    1.5126   -0.0000 C   0  0  0  0  0  0  0  0  0  0  0  0
   -1.3459    2.2749   -0.0000 C   0  0  0  0  0  0  0  0  0  0  0  0
    1.2625    2.2868   -0.0000 C   0  0  0  0  0  0  0  0  0  0  0  0
   -1.3578    3.7876   -0.0000 C   0  0  0  0  0  0  0  0  0  0  0  0
   -2.6561    1.5365   -0.0000 C   0  0  0  0  0  0  0  0  0  0  0  0
    1.2387    3.7995   -0.0000 C   0  0  0  0  0  0  0  0  0  0  0  0
   -0.0715    4.5499   -0.0000 C   0  0  0  0  0  0  0  0  0  0  0  0
   -3.9781    0.8099   -0.0000 C   0  0  0  0  0  0  0  0  0  0  0  0
   -1.9176    0.2382   -0.0000 C   0  0  0  0  0  0  0  0  0  0  0  0
   -3.4183    2.8585   -0.0000 C   0  0  0  0  0  0  0  0  0  0  0  0
    2.5251    4.5618   -0.0000 C   0  0  0  0  0  0  0  0  0  0  0  0
   -5.3002    0.0715   -0.0000 N   0  0  0  0  0  0  0  0  0  0  0  0
    3.8233    3.8233   -0.0000 C   0  0  0  0  0  0  0  0  0  0  0  0
    5.1097    4.5856   -0.0000 C   0  0  0  0  0  0  0  0  0  0  0  0
    6.3960    3.8471   -0.0000 O   0  0  0  0  0  0  0  0  0  0  0  0
    5.0858    3.0968   -0.0000 C   0  0  0  0  0  0  0  0  0  0  0  0
    5.0977    6.0982   -0.0000 C   0  0  0  0  0  0  0  0  0  0  0  0
    7.6824    4.6094   -0.0000 C   0  0  0  0  0  0  0  0  0  0  0  0
    3.8471    2.2273   -0.0000 C   0  0  0  0  0  0  0  0  0  0  0  0
    6.2888    2.2154   -0.0000 C   0  0  0  0  0  0  0  0  0  0  0  0
    6.3841    6.8724   -0.0000 C   0  0  0  0  0  0  0  0  0  0  0  0
    8.9687    3.8710   -0.0000 O   0  0  0  0  0  0  0  0  0  0  0  0
    7.6704    6.1221   -0.0000 C   0  0  0  0  0  0  0  0  0  0  0  0
    4.2878    0.8099   -0.0000 C   0  0  0  0  0  0  0  0  0  0  0  0
    5.8005    0.7980   -0.0000 C   0  0  0  0  0  0  0  0  0  0  0  0
    6.3722    8.3851   -0.0000 O   0  0  0  0  0  0  0  0  0  0  0  0
    8.9687    6.8843   -0.0000 C   0  0  0  0  0  0  0  0  0  0  0  0
   10.2550    6.1459   -0.0000 C   0  0  0  0  0  0  0  0  0  0  0  0
   11.5414    6.9082   -0.0000 C   0  0  0  0  0  0  0  0  0  0  0  0
   10.2312    4.6571   -0.0000 C   0  0  0  0  0  0  0  0  0  0  0  0
   12.8277    6.1697   -0.0000 C   0  0  0  0  0  0  0  0  0  0  0  0
   11.5176    3.9186   -0.0000 C   0  0  0  0  0  0  0  0  0  0  0  0
   14.1141    6.9320   -0.0000 O   0  0  0  0  0  0  0  0  0  0  0  0
   12.8158    4.6690   -0.0000 C   0  0  0  0  0  0  0  0  0  0  0  0
   15.4004    6.1935   -0.0000 C   0  0  0  0  0  0  0  0  0  0  0  0
  1  2  1  0
  2  3  2  0
  2  4  1  0
  3  5  1  0
  3  6  1  0
  4  7  2  0
  5  8  2  0
  6  9  1  0
  6 10  1  0
  6 11  1  0
  7 12  1  0
  9 13  3  0
 12 14  1  0
 14 15  1  0
 15 16  1  0
 15 17  1  0
 15 18  1  0
 16 19  1  0
 17 20  1  0
 17 21  1  0
 18 22  1  0
 19 23  2  0
 19 24  1  0
 20 25  1  0
 21 26  1  0
 22 27  1  0
 24 28  1  0
 28 29  1  0
 29 30  2  0
 29 31  1  0
 30 32  1  0
 31 33  2  0
 32 34  1  0
 32 35  2  0
 34 36  1  0
  7  8  1  0
 22 24  2  0
 25 26  1  0
 33 35  1  0
M  END
>  <MolRegNo>  (1) 
455806

>  <m>  (1) 
=

>  <Value>  (1) 
770

>  <Unit>  (1) 
nM

>  <Type>  (1) 
IC50

>  <pValue>  (1) 
6.11

>  <Ligand Efficiency>  (1) 
0

>  <Binding Efficiency>  (1) 
0

>  <Surface Efficiency>  (1) 
0

>  <Assay Index>  (1) 
363775

>  <Assay Category>  (1) 


>  <Assay Organism>  (1) 
Homo sapiens

>  <Target ID>  (1) 
11365

>  <Target Name>  (1) 
Cytochrome P450 2D6

>  <Target Organism>  (1) 
Homo sapiens

>  <Target Description>  (1) 
Target is a single protein chain

>  <Sequence Accession>  (1) 
P10635

>  <Reference>  (1) 
J Med Chem 52 (5), 1255-1258 (2009)

>  <Pubmed ID>  (1) 
19209845

>  <DOI>  (1) 
10.1021/jm8014537

$$$$
