4wnv_ligand_89
     RDKit          2D

 30 33  0  0  0  0  0  0  0  0999 V2000
    0.0000   -0.0000   -0.0000 S   0  0  0  0  0  0  0  0  0  0  0  0
    1.4769    0.0123   -0.0000 C   0  0  0  0  0  0  0  0  0  0  0  0
   -0.8738    1.2554   -0.0000 C   0  0  0  0  0  0  0  0  0  0  0  0
    2.1908    1.3169   -0.0000 C   0  0  0  0  0  0  0  0  0  0  0  0
    2.2031   -1.2677   -0.0000 C   0  0  0  0  0  0  0  0  0  0  0  0
   -2.3631    1.1446   -0.0000 C   0  0  0  0  0  0  0  0  0  0  0  0
    3.6677    1.3415   -0.0000 C   0  0  0  0  0  0  0  0  0  0  0  0
    3.6800   -1.2554   -0.0000 C   0  0  0  0  0  0  0  0  0  0  0  0
   -3.0523   -0.2585   -0.0000 C   0  0  0  0  0  0  0  0  0  0  0  0
   -3.2615    2.4369   -0.0000 C   0  0  0  0  0  0  0  0  0  0  0  0
    4.4185    0.0615   -0.0000 N   0  0  0  0  0  0  0  0  0  0  0  0
    4.4061    2.6461   -0.0000 C   0  0  0  0  0  0  0  0  0  0  0  0
    4.4185   -2.5354   -0.0000 C   0  0  0  0  0  0  0  0  0  0  0  0
   -4.6277   -0.3569   -0.0000 N   0  0  0  0  0  0  0  0  0  0  0  0
   -4.8246    2.3261   -0.0000 C   0  0  0  0  0  0  0  0  0  0  0  0
   -5.5261    0.9354   -0.0000 C   0  0  0  0  0  0  0  0  0  0  0  0
   -5.4769    3.6800   -0.0000 C   0  0  0  0  0  0  0  0  0  0  0  0
   -6.9169    0.6277   -0.0000 N   0  0  0  0  0  0  0  0  0  0  0  0
   -4.5784    4.8738   -0.0000 O   0  0  0  0  0  0  0  0  0  0  0  0
   -6.9661    4.0000   -0.0000 N   0  0  0  0  0  0  0  0  0  0  0  0
   -8.0861    1.5631   -0.0000 C   0  0  0  0  0  0  0  0  0  0  0  0
   -7.2738   -0.8123   -0.0000 C   0  0  0  0  0  0  0  0  0  0  0  0
   -8.1477    3.0031   -0.0000 C   0  0  0  0  0  0  0  0  0  0  0  0
   -9.3046    0.7877   -0.0000 N   0  0  0  0  0  0  0  0  0  0  0  0
   -8.7138   -1.2431   -0.0000 C   0  0  0  0  0  0  0  0  0  0  0  0
   -9.4523    3.6923   -0.0000 C   0  0  0  0  0  0  0  0  0  0  0  0
  -10.5969    1.4523   -0.0000 C   0  0  0  0  0  0  0  0  0  0  0  0
  -10.6707    2.9169   -0.0000 C   0  0  0  0  0  0  0  0  0  0  0  0
   -9.5384    5.1938   -0.0000 C   0  0  0  0  0  0  0  0  0  0  0  0
  -11.8646    0.6523   -0.0000 F   0  0  0  0  0  0  0  0  0  0  0  0
  1  2  1  0
  1  3  1  0
  2  4  2  0
  2  5  1  0
  3  6  1  0
  4  7  1  0
  5  8  2  0
  6  9  2  0
  6 10  1  0
  7 11  2  0
  7 12  1  0
  8 13  1  0
  9 14  1  0
 10 15  2  0
 14 16  2  0
 15 17  1  0
 16 18  1  0
 17 19  2  0
 17 20  1  0
 18 21  1  0
 18 22  1  0
 20 23  1  0
 21 24  2  0
 22 25  1  0
 23 26  2  0
 24 27  1  0
 26 28  1  0
 26 29  1  0
 27 30  1  0
  8 11  1  0
 15 16  1  0
 21 23  1  0
 27 28  2  0
M  END
>  <MolRegNo>  (1) 
271877

>  <m>  (1) 
=

>  <Value>  (1) 
27000

>  <Unit>  (1) 
nM

>  <Type>  (1) 
IC50

>  <pValue>  (1) 
4.57

>  <Ligand Efficiency>  (1) 
0

>  <Binding Efficiency>  (1) 
0

>  <Surface Efficiency>  (1) 
0

>  <Assay Index>  (1) 
51999

>  <Assay Category>  (1) 


>  <Assay Organism>  (1) 


>  <Target ID>  (1) 
11365

>  <Target Name>  (1) 
Cytochrome P450 2D6

>  <Target Organism>  (1) 
Homo sapiens

>  <Target Description>  (1) 
Target is a single protein chain

>  <Sequence Accession>  (1) 
P10635

>  <Reference>  (1) 
Bioorg Med Chem Lett 14 (3), 739-742 (2004)

>  <Pubmed ID>  (1) 
14741280

>  <DOI>  (1) 
10.1016/j.bmcl.2003.11.049

$$$$
