4wnv_ligand_177
     RDKit          2D

 37 40  0  0  1  0  0  0  0  0999 V2000
    0.0000   -0.0000   -0.0000 S   0  0  0  0  0  0  0  0  0  0  0  0
   -1.5268   -0.0000   -0.0000 O   0  0  0  0  0  0  0  0  0  0  0  0
    1.4905    0.0364   -0.0000 O   0  0  0  0  0  0  0  0  0  0  0  0
   -0.0364    1.5147   -0.0000 N   0  0  0  0  0  0  0  0  0  0  0  0
    0.0000   -1.5026   -0.0000 C   0  0  0  0  0  0  0  0  0  0  0  0
    1.2481    2.3024   -0.0000 C   0  0  0  0  0  0  0  0  0  0  0  0
    1.3087   -2.2176   -0.0000 C   0  0  0  0  0  0  0  0  0  0  0  0
   -1.3087   -2.2539   -0.0000 C   0  0  0  0  0  0  0  0  0  0  0  0
    2.5205    1.5511   -0.0000 C   0  0  0  0  0  0  0  0  0  0  0  0
    1.3208   -3.7081   -0.0000 C   0  0  0  0  0  0  0  0  0  0  0  0
   -1.3087   -3.7565   -0.0000 C   0  0  0  0  0  0  0  0  0  0  0  0
    3.7929    2.2903   -0.0000 C   0  0  0  0  0  0  0  0  0  0  0  0
    2.4963    0.0242   -0.0000 C   0  0  0  0  0  0  0  0  0  0  0  0
    0.0000   -4.4836   -0.0000 C   0  0  0  0  0  0  0  0  0  0  0  0
    5.0774    1.5511   -0.0000 C   0  0  0  0  0  0  0  0  0  0  0  0
    3.7808   -0.7150   -0.0000 C   0  0  0  0  0  0  0  0  0  0  0  0
    0.0121   -5.9741   -0.0000 C   0  0  0  0  0  0  0  0  0  0  0  0
    5.0652    0.0485   -0.0000 C   0  0  0  0  0  0  0  0  0  0  0  0
    6.3619   -0.6907   -0.0000 C   0  0  0  0  0  0  0  0  0  0  0  0
    7.6342    0.0848   -0.0000 C   0  0  0  0  0  0  0  0  0  0  0  0
    7.6221    1.5996   -0.0000 O   0  0  0  0  0  0  0  0  0  0  0  0
    8.9429   -0.6544   -0.0000 N   0  0  0  0  0  0  0  0  0  0  0  0
   10.2274    0.1091   -0.0000 C   0  0  0  0  0  0  0  0  0  0  0  0
    8.9308   -2.1449   -0.0000 C   0  0  0  0  0  0  0  0  0  0  0  0
   10.2153    1.6238   -0.0000 C   0  0  0  0  0  0  0  0  0  0  0  0
   11.5119   -0.6301   -0.0000 C   0  0  0  0  0  0  0  0  0  0  0  0
   11.4998    2.3751   -0.0000 C   0  0  0  0  0  0  0  0  0  0  0  0
    8.9066    2.3630   -0.0000 C   0  0  0  0  0  0  0  0  0  0  0  0
   12.7964    0.1333   -0.0000 N   0  0  0  0  0  0  0  0  0  0  0  0
   11.4877    3.8898   -0.0000 C   0  0  0  0  0  0  0  0  0  0  0  0
    8.8824    3.8777   -0.0000 C   0  0  0  0  0  0  0  0  0  0  0  0
   14.1536   -0.4605   -0.0000 C   0  0  0  0  0  0  0  0  0  0  0  0
   12.9418    1.6480   -0.0000 C   0  0  0  0  0  0  0  0  0  0  0  0
   10.1790    4.6532   -0.0000 C   0  0  0  0  0  0  0  0  0  0  0  0
   15.1594    0.6665   -0.0000 C   0  0  0  0  0  0  0  0  0  0  0  0
   14.3838    1.9631   -0.0000 C   0  0  0  0  0  0  0  0  0  0  0  0
   16.6378    0.5332   -0.0000 O   0  0  0  0  0  0  0  0  0  0  0  0
  1  2  2  0
  1  3  2  0
  1  4  1  0
  1  5  1  0
  4  6  1  0
  5  7  2  0
  5  8  1  0
  6  9  1  0
  7 10  1  0
  8 11  2  0
  9 12  2  0
  9 13  1  0
 10 14  2  0
 12 15  1  0
 13 16  2  0
 14 17  1  0
 15 18  2  0
 18 19  1  0
 19 20  1  0
 20 21  2  0
 20 22  1  0
 23 22  1  0
 22 24  1  0
 23 25  1  0
 23 26  1  1
 25 27  2  0
 25 28  1  0
 26 29  1  0
 27 30  1  0
 28 31  2  0
 29 32  1  0
 29 33  1  0
 30 34  2  0
 32 35  1  0
 33 36  1  0
 35 37  1  6
 11 14  1  0
 16 18  1  0
 31 34  1  0
 35 36  1  0
M  END
>  <MolRegNo>  (1) 
319291

>  <m>  (1) 
=

>  <Value>  (1) 
5653

>  <Unit>  (1) 
nM

>  <Type>  (1) 
IC50

>  <pValue>  (1) 
5.25

>  <Ligand Efficiency>  (1) 
0

>  <Binding Efficiency>  (1) 
0

>  <Surface Efficiency>  (1) 
0

>  <Assay Index>  (1) 
238842

>  <Assay Category>  (1) 


>  <Assay Organism>  (1) 
Homo sapiens

>  <Target ID>  (1) 
11365

>  <Target Name>  (1) 
Cytochrome P450 2D6

>  <Target Organism>  (1) 
Homo sapiens

>  <Target Description>  (1) 
Target is a single protein chain

>  <Sequence Accession>  (1) 
P10635

>  <Reference>  (1) 
Bioorg Med Chem Lett 15 (10), 2647-2652 (2005)

>  <Pubmed ID>  (1) 
15863335

>  <DOI>  (1) 
10.1016/j.bmcl.2005.03.020

$$$$
