4wnv_ligand_701
     RDKit          2D

 30 33  0  0  0  0  0  0  0  0999 V2000
    0.0000   -0.0000   -0.0000 S   0  0  0  0  0  0  0  0  0  0  0  0
    0.7387    1.3106   -0.0000 O   0  0  0  0  0  0  0  0  0  0  0  0
   -0.7506   -1.2987   -0.0000 O   0  0  0  0  0  0  0  0  0  0  0  0
    1.2749   -0.7387   -0.0000 N   0  0  0  0  0  0  0  0  0  0  0  0
   -1.3106    0.7625   -0.0000 C   0  0  0  0  0  0  0  0  0  0  0  0
   -1.3225    2.2876   -0.0000 C   0  0  0  0  0  0  0  0  0  0  0  0
   -2.6331    0.0238   -0.0000 C   0  0  0  0  0  0  0  0  0  0  0  0
   -2.6450    3.0382   -0.0000 C   0  0  0  0  0  0  0  0  0  0  0  0
   -3.9437    0.7864   -0.0000 C   0  0  0  0  0  0  0  0  0  0  0  0
   -2.6689    4.5513   -0.0000 N   0  0  0  0  0  0  0  0  0  0  0  0
   -3.9437    2.2995   -0.0000 C   0  0  0  0  0  0  0  0  0  0  0  0
   -1.3821    5.3258   -0.0000 C   0  0  0  0  0  0  0  0  0  0  0  0
   -0.0953    4.5871   -0.0000 N   0  0  0  0  0  0  0  0  0  0  0  0
   -1.4059    6.8270   -0.0000 N   0  0  0  0  0  0  0  0  0  0  0  0
    1.1915    5.3496   -0.0000 C   0  0  0  0  0  0  0  0  0  0  0  0
   -0.1311    7.6015   -0.0000 C   0  0  0  0  0  0  0  0  0  0  0  0
    2.4782    4.6109   -0.0000 N   0  0  0  0  0  0  0  0  0  0  0  0
    1.1676    6.8628   -0.0000 C   0  0  0  0  0  0  0  0  0  0  0  0
    3.7650    5.3734   -0.0000 C   0  0  0  0  0  0  0  0  0  0  0  0
    2.4782    3.1216   -0.0000 C   0  0  0  0  0  0  0  0  0  0  0  0
    5.0518    4.6347   -0.0000 C   0  0  0  0  0  0  0  0  0  0  0  0
    3.7412    6.8747   -0.0000 C   0  0  0  0  0  0  0  0  0  0  0  0
    6.3385    5.4092   -0.0000 C   0  0  0  0  0  0  0  0  0  0  0  0
    5.0160    7.6491   -0.0000 C   0  0  0  0  0  0  0  0  0  0  0  0
    7.7563    4.9564   -0.0000 N   0  0  0  0  0  0  0  0  0  0  0  0
    6.3266    6.9223   -0.0000 C   0  0  0  0  0  0  0  0  0  0  0  0
    8.6261    6.1836   -0.0000 C   0  0  0  0  0  0  0  0  0  0  0  0
    8.2091    3.5386   -0.0000 C   0  0  0  0  0  0  0  0  0  0  0  0
    7.7444    7.3989   -0.0000 N   0  0  0  0  0  0  0  0  0  0  0  0
   10.1154    6.1955   -0.0000 C   0  0  0  0  0  0  0  0  0  0  0  0
  1  2  2  0
  1  3  2  0
  1  4  1  0
  1  5  1  0
  5  6  2  0
  5  7  1  0
  6  8  1  0
  7  9  2  0
  8 10  1  0
  8 11  2  0
 10 12  1  0
 12 13  2  0
 12 14  1  0
 13 15  1  0
 14 16  2  0
 15 17  1  0
 15 18  2  0
 17 19  1  0
 17 20  1  0
 19 21  2  0
 19 22  1  0
 21 23  1  0
 22 24  2  0
 23 25  1  0
 23 26  2  0
 25 27  1  0
 25 28  1  0
 26 29  1  0
 27 30  1  0
  9 11  1  0
 16 18  1  0
 24 26  1  0
 27 29  2  0
M  END
>  <MolRegNo>  (1) 
489523

>  <m>  (1) 
=

>  <Value>  (1) 
25000

>  <Unit>  (1) 
nM

>  <Type>  (1) 
IC50

>  <pValue>  (1) 
4.6

>  <Ligand Efficiency>  (1) 
0

>  <Binding Efficiency>  (1) 
0

>  <Surface Efficiency>  (1) 
0

>  <Assay Index>  (1) 
338813

>  <Assay Category>  (1) 


>  <Assay Organism>  (1) 
Homo sapiens

>  <Target ID>  (1) 
11365

>  <Target Name>  (1) 
Cytochrome P450 2D6

>  <Target Organism>  (1) 
Homo sapiens

>  <Target Description>  (1) 
Target is a single protein chain

>  <Sequence Accession>  (1) 
P10635

>  <Reference>  (1) 
J Med Chem 51 (15), 4632-4640 (2008)

>  <Pubmed ID>  (1) 
18620382

>  <DOI>  (1) 
10.1021/jm800566m

$$$$
