4wnv_ligand_182
     RDKit          2D

 26 28  0  0  0  0  0  0  0  0999 V2000
    0.0000   -0.0000   -0.0000 Cl  0  0  0  0  0  0  0  0  0  0  0  0
   -0.0119   -1.4902   -0.0000 C   0  0  0  0  0  0  0  0  0  0  0  0
   -1.3233   -2.2294   -0.0000 C   0  0  0  0  0  0  0  0  0  0  0  0
    1.2756   -2.2294   -0.0000 C   0  0  0  0  0  0  0  0  0  0  0  0
   -2.6347   -1.4664   -0.0000 Cl  0  0  0  0  0  0  0  0  0  0  0  0
   -1.3352   -3.7196   -0.0000 C   0  0  0  0  0  0  0  0  0  0  0  0
    1.2637   -3.7315   -0.0000 C   0  0  0  0  0  0  0  0  0  0  0  0
   -0.0477   -4.4588   -0.0000 C   0  0  0  0  0  0  0  0  0  0  0  0
    2.5513   -4.4707   -0.0000 C   0  0  0  0  0  0  0  0  0  0  0  0
    3.8388   -3.7077   -0.0000 C   0  0  0  0  0  0  0  0  0  0  0  0
    5.1264   -4.4468   -0.0000 O   0  0  0  0  0  0  0  0  0  0  0  0
    3.8269   -2.1936   -0.0000 N   0  0  0  0  0  0  0  0  0  0  0  0
    5.1145   -1.4306   -0.0000 C   0  0  0  0  0  0  0  0  0  0  0  0
    2.5155   -1.4306   -0.0000 C   0  0  0  0  0  0  0  0  0  0  0  0
    5.1025    0.0835   -0.0000 C   0  0  0  0  0  0  0  0  0  0  0  0
    6.4020   -2.1698   -0.0000 C   0  0  0  0  0  0  0  0  0  0  0  0
    6.3901    0.8345   -0.0000 C   0  0  0  0  0  0  0  0  0  0  0  0
    3.7911    0.8345   -0.0000 C   0  0  0  0  0  0  0  0  0  0  0  0
    7.6896   -1.4068   -0.0000 N   0  0  0  0  0  0  0  0  0  0  0  0
    6.3782    2.3486   -0.0000 C   0  0  0  0  0  0  0  0  0  0  0  0
    3.7673    2.3486   -0.0000 C   0  0  0  0  0  0  0  0  0  0  0  0
    9.0487   -2.0029   -0.0000 C   0  0  0  0  0  0  0  0  0  0  0  0
    7.8207    0.0954   -0.0000 C   0  0  0  0  0  0  0  0  0  0  0  0
    5.0668    3.1116   -0.0000 C   0  0  0  0  0  0  0  0  0  0  0  0
   10.0382   -0.8703   -0.0000 C   0  0  0  0  0  0  0  0  0  0  0  0
    9.2752    0.4173   -0.0000 C   0  0  0  0  0  0  0  0  0  0  0  0
  1  2  1  0
  2  3  2  0
  2  4  1  0
  3  5  1  0
  3  6  1  0
  4  7  2  0
  6  8  2  0
  7  9  1  0
  9 10  1  0
 10 11  2  0
 10 12  1  0
 13 12  1  0
 12 14  1  0
 13 15  1  0
 13 16  1  6
 15 17  2  0
 15 18  1  0
 16 19  1  0
 17 20  1  0
 18 21  2  0
 19 22  1  0
 19 23  1  0
 20 24  2  0
 22 25  1  0
 23 26  1  0
  7  8  1  0
 21 24  1  0
 25 26  1  0
M  END
>  <MolRegNo>  (1) 
56001

>  <m>  (1) 
=

>  <Value>  (1) 
26

>  <Unit>  (1) 
nM

>  <Type>  (1) 
IC50

>  <pValue>  (1) 
7.58

>  <Ligand Efficiency>  (1) 
0

>  <Binding Efficiency>  (1) 
0

>  <Surface Efficiency>  (1) 
0

>  <Assay Index>  (1) 
238842

>  <Assay Category>  (1) 


>  <Assay Organism>  (1) 
Homo sapiens

>  <Target ID>  (1) 
11365

>  <Target Name>  (1) 
Cytochrome P450 2D6

>  <Target Organism>  (1) 
Homo sapiens

>  <Target Description>  (1) 
Target is a single protein chain

>  <Sequence Accession>  (1) 
P10635

>  <Reference>  (1) 
Bioorg Med Chem Lett 15 (10), 2647-2652 (2005)

>  <Pubmed ID>  (1) 
15863335

>  <DOI>  (1) 
10.1016/j.bmcl.2005.03.020

$$$$
