4wnv_ligand_1031
     RDKit          2D

 26 28  0  0  0  0  0  0  0  0999 V2000
    0.0000   -0.0000   -0.0000 F   0  0  0  0  0  0  0  0  0  0  0  0
    1.2837   -0.7370   -0.0000 C   0  0  0  0  0  0  0  0  0  0  0  0
    1.2718   -2.2346   -0.0000 C   0  0  0  0  0  0  0  0  0  0  0  0
    2.5674    0.0357   -0.0000 C   0  0  0  0  0  0  0  0  0  0  0  0
    2.5674   -2.9835   -0.0000 C   0  0  0  0  0  0  0  0  0  0  0  0
    3.8630   -0.7013   -0.0000 C   0  0  0  0  0  0  0  0  0  0  0  0
    3.8630   -2.2109   -0.0000 C   0  0  0  0  0  0  0  0  0  0  0  0
    5.1587   -2.9478   -0.0000 C   0  0  0  0  0  0  0  0  0  0  0  0
    6.4543   -2.1752   -0.0000 N   0  0  0  0  0  0  0  0  0  0  0  0
    5.1468   -4.4455   -0.0000 C   0  0  0  0  0  0  0  0  0  0  0  0
    7.7499   -2.9240   -0.0000 C   0  0  0  0  0  0  0  0  0  0  0  0
    6.4305   -0.6656   -0.0000 C   0  0  0  0  0  0  0  0  0  0  0  0
    6.4424   -5.1824   -0.0000 C   0  0  0  0  0  0  0  0  0  0  0  0
    9.0336   -2.1633   -0.0000 C   0  0  0  0  0  0  0  0  0  0  0  0
    7.7261    0.1070   -0.0000 C   0  0  0  0  0  0  0  0  0  0  0  0
    6.4186   -6.6682   -0.0000 C   0  0  0  0  0  0  0  0  0  0  0  0
    7.7261   -4.4098   -0.0000 C   0  0  0  0  0  0  0  0  0  0  0  0
    9.0217   -0.6419   -0.0000 N   0  0  0  0  0  0  0  0  0  0  0  0
    5.1111   -7.4052   -0.0000 O   0  0  0  0  0  0  0  0  0  0  0  0
    7.7142   -7.4052   -0.0000 C   0  0  0  0  0  0  0  0  0  0  0  0
    9.0217   -5.1468   -0.0000 C   0  0  0  0  0  0  0  0  0  0  0  0
    3.8036   -6.6444   -0.0000 C   0  0  0  0  0  0  0  0  0  0  0  0
    9.0098   -6.6326   -0.0000 C   0  0  0  0  0  0  0  0  0  0  0  0
    2.4961   -7.3814   -0.0000 F   0  0  0  0  0  0  0  0  0  0  0  0
    3.7917   -5.1349   -0.0000 F   0  0  0  0  0  0  0  0  0  0  0  0
    2.4842   -5.8837   -0.0000 F   0  0  0  0  0  0  0  0  0  0  0  0
  1  2  1  0
  2  3  2  0
  2  4  1  0
  3  5  1  0
  4  6  2  0
  5  7  2  0
  7  8  1  0
  8  9  1  0
  8 10  1  0
  9 11  1  0
  9 12  1  0
 10 13  1  0
 11 14  1  0
 12 15  1  0
 13 16  2  0
 13 17  1  0
 14 18  1  0
 16 19  1  0
 16 20  1  0
 17 21  2  0
 19 22  1  0
 20 23  2  0
 22 24  1  0
 22 25  1  0
 22 26  1  0
  6  7  1  0
 15 18  1  0
 21 23  1  0
M  END
>  <MolRegNo>  (1) 
632358

>  <m>  (1) 
=

>  <Value>  (1) 
1400

>  <Unit>  (1) 
nM

>  <Type>  (1) 
IC50

>  <pValue>  (1) 
5.85

>  <Ligand Efficiency>  (1) 
0

>  <Binding Efficiency>  (1) 
0

>  <Surface Efficiency>  (1) 
0

>  <Assay Index>  (1) 
480301

>  <Assay Category>  (1) 


>  <Assay Organism>  (1) 


>  <Target ID>  (1) 
11365

>  <Target Name>  (1) 
Cytochrome P450 2D6

>  <Target Organism>  (1) 
Homo sapiens

>  <Target Description>  (1) 
Target is a single protein chain

>  <Sequence Accession>  (1) 
P10635

>  <Reference>  (1) 
Bioorg Med Chem Lett 20 (12), 3788-3792 (2010)

>  <Pubmed ID>  (1) 
20471260

>  <DOI>  (1) 
10.1016/j.bmcl.2010.04.052

$$$$
