4wnv_ligand_371
     RDKit          2D

 35 38  0  0  0  0  0  0  0  0999 V2000
    0.0000   -0.0000   -0.0000 F   0  0  0  0  0  0  0  0  0  0  0  0
   -0.0118    1.5033   -0.0000 C   0  0  0  0  0  0  0  0  0  0  0  0
    1.2666    2.2727   -0.0000 C   0  0  0  0  0  0  0  0  0  0  0  0
   -1.3139    2.2727   -0.0000 C   0  0  0  0  0  0  0  0  0  0  0  0
    1.2547    3.7878   -0.0000 C   0  0  0  0  0  0  0  0  0  0  0  0
   -1.3257    3.7760   -0.0000 C   0  0  0  0  0  0  0  0  0  0  0  0
    2.5450    4.5454   -0.0000 F   0  0  0  0  0  0  0  0  0  0  0  0
   -0.0473    4.5336   -0.0000 C   0  0  0  0  0  0  0  0  0  0  0  0
   -2.6278    4.5217   -0.0000 C   0  0  0  0  0  0  0  0  0  0  0  0
   -3.9299    3.7878   -0.0000 O   0  0  0  0  0  0  0  0  0  0  0  0
   -2.6397    6.0250   -0.0000 C   0  0  0  0  0  0  0  0  0  0  0  0
   -2.6515    3.0421   -0.0000 C   0  0  0  0  0  0  0  0  0  0  0  0
   -5.2320    4.5336   -0.0000 C   0  0  0  0  0  0  0  0  0  0  0  0
   -1.3613    6.7826   -0.0000 O   0  0  0  0  0  0  0  0  0  0  0  0
   -3.9536    6.7826   -0.0000 N   0  0  0  0  0  0  0  0  0  0  0  0
   -5.2438    6.0369   -0.0000 C   0  0  0  0  0  0  0  0  0  0  0  0
   -6.5340    3.7878   -0.0000 C   0  0  0  0  0  0  0  0  0  0  0  0
   -3.9654    8.2859   -0.0000 C   0  0  0  0  0  0  0  0  0  0  0  0
   -6.5459    6.7945   -0.0000 C   0  0  0  0  0  0  0  0  0  0  0  0
   -7.8361    4.5454   -0.0000 C   0  0  0  0  0  0  0  0  0  0  0  0
   -2.6870    9.0553   -0.0000 C   0  0  0  0  0  0  0  0  0  0  0  0
   -7.8361    6.0487   -0.0000 C   0  0  0  0  0  0  0  0  0  0  0  0
   -2.6988   10.5586   -0.0000 C   0  0  0  0  0  0  0  0  0  0  0  0
   -9.1382    6.8063   -0.0000 C   0  0  0  0  0  0  0  0  0  0  0  0
   -1.4204   11.3162   -0.0000 C   0  0  0  0  0  0  0  0  0  0  0  0
   -9.1500    8.3214   -0.0000 C   0  0  0  0  0  0  0  0  0  0  0  0
  -10.4521    6.0606   -0.0000 C   0  0  0  0  0  0  0  0  0  0  0  0
   -0.1420   12.0738   -0.0000 N   0  0  0  0  0  0  0  0  0  0  0  0
  -10.4639    9.0790   -0.0000 N   0  0  0  0  0  0  0  0  0  0  0  0
   -7.8716    9.0908   -0.0000 N   0  0  0  0  0  0  0  0  0  0  0  0
  -11.7542    6.8300   -0.0000 N   0  0  0  0  0  0  0  0  0  0  0  0
  -10.4639    4.5809   -0.0000 C   0  0  0  0  0  0  0  0  0  0  0  0
  -11.7660    8.3333   -0.0000 C   0  0  0  0  0  0  0  0  0  0  0  0
  -11.7660    3.8470   -0.0000 C   0  0  0  0  0  0  0  0  0  0  0  0
  -13.0681    9.0908   -0.0000 N   0  0  0  0  0  0  0  0  0  0  0  0
  1  2  1  0
  2  3  2  0
  2  4  1  0
  3  5  1  0
  4  6  2  0
  5  7  1  0
  5  8  2  0
  6  9  1  0
  9 10  1  0
  9 11  1  0
  9 12  1  0
 10 13  1  0
 11 14  2  0
 11 15  1  0
 13 16  2  0
 13 17  1  0
 15 18  1  0
 16 19  1  0
 17 20  2  0
 18 21  1  0
 19 22  2  0
 21 23  1  0
 22 24  1  0
 23 25  1  0
 24 26  2  0
 24 27  1  0
 25 28  3  0
 26 29  1  0
 26 30  1  0
 27 31  2  0
 27 32  1  0
 29 33  2  0
 32 34  1  0
 33 35  1  0
  6  8  1  0
 15 16  1  0
 20 22  1  0
 31 33  1  0
M  END
>  <MolRegNo>  (1) 
405848

>  <m>  (1) 
=

>  <Value>  (1) 
27900

>  <Unit>  (1) 
nM

>  <Type>  (1) 
IC50

>  <pValue>  (1) 
4.55

>  <Ligand Efficiency>  (1) 
0

>  <Binding Efficiency>  (1) 
0

>  <Surface Efficiency>  (1) 
0

>  <Assay Index>  (1) 
297171

>  <Assay Category>  (1) 


>  <Assay Organism>  (1) 


>  <Target ID>  (1) 
11365

>  <Target Name>  (1) 
Cytochrome P450 2D6

>  <Target Organism>  (1) 
Homo sapiens

>  <Target Description>  (1) 
Target is a single protein chain

>  <Sequence Accession>  (1) 
P10635

>  <Reference>  (1) 
Bioorg Med Chem 15 (17), 5912-5949 (2007)

>  <Pubmed ID>  (1) 
17574423

>  <DOI>  (1) 
10.1016/j.bmc.2007.05.069

$$$$
