4wnv_ligand_58
     RDKit          2D

 20 22  0  0  0  0  0  0  0  0999 V2000
    0.0000   -0.0000   -0.0000 N   0  0  0  0  0  0  0  0  0  0  0  0
   -1.2749    0.7720   -0.0000 C   0  0  0  0  0  0  0  0  0  0  0  0
    1.2515    0.7369   -0.0000 C   0  0  0  0  0  0  0  0  0  0  0  0
   -1.2983    2.2691   -0.0000 C   0  0  0  0  0  0  0  0  0  0  0  0
   -2.5381    3.0411   -0.0000 C   0  0  0  0  0  0  0  0  0  0  0  0
   -2.5498    4.5265   -0.0000 C   0  0  0  0  0  0  0  0  0  0  0  0
   -3.9066    5.1815   -0.0000 C   0  0  0  0  0  0  0  0  0  0  0  0
   -1.2047    5.1815   -0.0000 C   0  0  0  0  0  0  0  0  0  0  0  0
   -4.2341    6.6553   -0.0000 C   0  0  0  0  0  0  0  0  0  0  0  0
   -5.0295    4.2107   -0.0000 C   0  0  0  0  0  0  0  0  0  0  0  0
   -0.8655    6.6319   -0.0000 C   0  0  0  0  0  0  0  0  0  0  0  0
   -0.1521    4.1289   -0.0000 C   0  0  0  0  0  0  0  0  0  0  0  0
   -5.6728    7.1232   -0.0000 C   0  0  0  0  0  0  0  0  0  0  0  0
   -3.3101    7.8366   -0.0000 C   0  0  0  0  0  0  0  0  0  0  0  0
   -6.4682    4.6552   -0.0000 C   0  0  0  0  0  0  0  0  0  0  0  0
    0.5965    7.0647   -0.0000 C   0  0  0  0  0  0  0  0  0  0  0  0
   -1.8247    7.8366   -0.0000 C   0  0  0  0  0  0  0  0  0  0  0  0
    1.2866    4.5148   -0.0000 C   0  0  0  0  0  0  0  0  0  0  0  0
   -6.8190    6.1640   -0.0000 C   0  0  0  0  0  0  0  0  0  0  0  0
    1.6609    6.0003   -0.0000 C   0  0  0  0  0  0  0  0  0  0  0  0
  1  2  1  0
  1  3  1  0
  2  4  1  0
  4  5  1  0
  5  6  2  0
  6  7  1  0
  6  8  1  0
  7  9  2  0
  7 10  1  0
  8 11  2  0
  8 12  1  0
  9 13  1  0
  9 14  1  0
 10 15  2  0
 11 16  1  0
 11 17  1  0
 12 18  2  0
 13 19  2  0
 16 20  2  0
 14 17  1  0
 15 19  1  0
 18 20  1  0
M  END
>  <MolRegNo>  (1) 
2262

>  <m>  (1) 
=

>  <Value>  (1) 
2300

>  <Unit>  (1) 
nM

>  <Type>  (1) 
IC50

>  <pValue>  (1) 
5.64

>  <Ligand Efficiency>  (1) 
0

>  <Binding Efficiency>  (1) 
0

>  <Surface Efficiency>  (1) 
0

>  <Assay Index>  (1) 
51626

>  <Assay Category>  (1) 


>  <Assay Organism>  (1) 
Homo sapiens

>  <Target ID>  (1) 
11365

>  <Target Name>  (1) 
Cytochrome P450 2D6

>  <Target Organism>  (1) 
Homo sapiens

>  <Target Description>  (1) 
Target is a single protein chain

>  <Sequence Accession>  (1) 
P10635

>  <Reference>  (1) 
J Med Chem 46 (1), 74-86 (2003)

>  <Pubmed ID>  (1) 
12502361

>  <DOI>  (1) 
10.1021/jm0209578

$$$$
