4wnv_ligand_243
     RDKit          2D

 30 33  0  0  0  0  0  0  0  0999 V2000
    0.0000   -0.0000   -0.0000 O   0  0  0  0  0  0  0  0  0  0  0  0
   -0.0118   -1.4874   -0.0000 C   0  0  0  0  0  0  0  0  0  0  0  0
    1.2749   -2.2311   -0.0000 N   0  0  0  0  0  0  0  0  0  0  0  0
   -1.3221   -2.2193   -0.0000 C   0  0  0  0  0  0  0  0  0  0  0  0
    1.2631   -3.7185   -0.0000 C   0  0  0  0  0  0  0  0  0  0  0  0
   -2.6325   -1.4520   -0.0000 C   0  0  0  0  0  0  0  0  0  0  0  0
   -0.0472   -4.4504   -0.0000 C   0  0  0  0  0  0  0  0  0  0  0  0
    2.5498   -4.4504   -0.0000 C   0  0  0  0  0  0  0  0  0  0  0  0
   -3.9428   -2.1839   -0.0000 N   0  0  0  0  0  0  0  0  0  0  0  0
   -0.0590   -5.9378   -0.0000 C   0  0  0  0  0  0  0  0  0  0  0  0
    2.5380   -5.9378   -0.0000 C   0  0  0  0  0  0  0  0  0  0  0  0
   -3.9546   -3.6713   -0.0000 C   0  0  0  0  0  0  0  0  0  0  0  0
   -5.2532   -1.4284   -0.0000 C   0  0  0  0  0  0  0  0  0  0  0  0
    1.2277   -6.6815   -0.0000 C   0  0  0  0  0  0  0  0  0  0  0  0
   -5.2650   -4.4032   -0.0000 C   0  0  0  0  0  0  0  0  0  0  0  0
   -6.5635   -2.1603   -0.0000 C   0  0  0  0  0  0  0  0  0  0  0  0
    1.2159   -8.1690   -0.0000 C   0  0  0  0  0  0  0  0  0  0  0  0
   -6.5753   -3.6477   -0.0000 C   0  0  0  0  0  0  0  0  0  0  0  0
   -0.0944   -8.9127   -0.0000 N   0  0  0  0  0  0  0  0  0  0  0  0
   -7.8856   -4.3796   -0.0000 C   0  0  0  0  0  0  0  0  0  0  0  0
   -1.3930   -8.1453   -0.0000 C   0  0  0  0  0  0  0  0  0  0  0  0
   -0.0944  -10.4001   -0.0000 C   0  0  0  0  0  0  0  0  0  0  0  0
   -9.1960   -3.6241   -0.0000 C   0  0  0  0  0  0  0  0  0  0  0  0
   -2.7033   -8.8772   -0.0000 C   0  0  0  0  0  0  0  0  0  0  0  0
   -1.4166  -11.1320   -0.0000 C   0  0  0  0  0  0  0  0  0  0  0  0
  -10.5771   -4.2261   -0.0000 N   0  0  0  0  0  0  0  0  0  0  0  0
   -9.3731   -2.1249   -0.0000 C   0  0  0  0  0  0  0  0  0  0  0  0
   -2.7269  -10.3647   -0.0000 C   0  0  0  0  0  0  0  0  0  0  0  0
  -11.5924   -3.0929   -0.0000 C   0  0  0  0  0  0  0  0  0  0  0  0
  -10.8487   -1.7943   -0.0000 N   0  0  0  0  0  0  0  0  0  0  0  0
  1  2  2  0
  2  3  1  0
  2  4  1  0
  3  5  1  0
  4  6  1  0
  5  7  2  0
  5  8  1  0
  6  9  1  0
  7 10  1  0
  8 11  2  0
  9 12  1  0
  9 13  1  0
 10 14  2  0
 12 15  1  0
 13 16  1  0
 14 17  1  0
 15 18  1  0
 17 19  1  0
 18 20  1  0
 19 21  1  0
 19 22  1  0
 20 23  1  0
 21 24  1  0
 22 25  1  0
 23 26  1  0
 23 27  2  0
 24 28  1  0
 26 29  2  0
 27 30  1  0
 11 14  1  0
 16 18  1  0
 25 28  1  0
 29 30  1  0
M  END
>  <MolRegNo>  (1) 
339659

>  <m>  (1) 
=

>  <Value>  (1) 
9000

>  <Unit>  (1) 
nM

>  <Type>  (1) 
IC50

>  <pValue>  (1) 
5.05

>  <Ligand Efficiency>  (1) 
0

>  <Binding Efficiency>  (1) 
0

>  <Surface Efficiency>  (1) 
0

>  <Assay Index>  (1) 
257619

>  <Assay Category>  (1) 


>  <Assay Organism>  (1) 
Homo sapiens

>  <Target ID>  (1) 
11365

>  <Target Name>  (1) 
Cytochrome P450 2D6

>  <Target Organism>  (1) 
Homo sapiens

>  <Target Description>  (1) 
Target is a single protein chain

>  <Sequence Accession>  (1) 
P10635

>  <Reference>  (1) 
Bioorg Med Chem Lett 16 (4), 989-994 (2006)

>  <Pubmed ID>  (1) 
16297617

>  <DOI>  (1) 
10.1016/j.bmcl.2005.10.087

$$$$
