4wnv_ligand_265
     RDKit          2D

 30 33  0  0  0  0  0  0  0  0999 V2000
    0.0000   -0.0000   -0.0000 O   0  0  0  0  0  0  0  0  0  0  0  0
    0.0000   -1.4889   -0.0000 C   0  0  0  0  0  0  0  0  0  0  0  0
   -1.3116    0.7562   -0.0000 C   0  0  0  0  0  0  0  0  0  0  0  0
   -1.2998   -2.2333   -0.0000 C   0  0  0  0  0  0  0  0  0  0  0  0
    1.2880   -2.2097   -0.0000 C   0  0  0  0  0  0  0  0  0  0  0  0
   -2.6114    0.0118   -0.0000 C   0  0  0  0  0  0  0  0  0  0  0  0
   -1.2998   -3.7221   -0.0000 C   0  0  0  0  0  0  0  0  0  0  0  0
    1.2998   -3.6985   -0.0000 C   0  0  0  0  0  0  0  0  0  0  0  0
   -3.9230    0.7799   -0.0000 C   0  0  0  0  0  0  0  0  0  0  0  0
    0.0000   -4.4548   -0.0000 C   0  0  0  0  0  0  0  0  0  0  0  0
   -5.2346    0.0473   -0.0000 N   0  0  0  0  0  0  0  0  0  0  0  0
    0.0000   -5.9436   -0.0000 C   0  0  0  0  0  0  0  0  0  0  0  0
   -5.2464   -1.4416   -0.0000 C   0  0  0  0  0  0  0  0  0  0  0  0
   -6.5462    0.8035   -0.0000 C   0  0  0  0  0  0  0  0  0  0  0  0
    1.2998   -6.6644   -0.0000 C   0  0  0  0  0  0  0  0  0  0  0  0
   -6.5581   -2.1742   -0.0000 C   0  0  0  0  0  0  0  0  0  0  0  0
   -7.8579    0.0709   -0.0000 C   0  0  0  0  0  0  0  0  0  0  0  0
    2.5760   -5.8845   -0.0000 N   0  0  0  0  0  0  0  0  0  0  0  0
   -7.8697   -1.4180   -0.0000 C   0  0  0  0  0  0  0  0  0  0  0  0
    3.8639   -6.6171   -0.0000 C   0  0  0  0  0  0  0  0  0  0  0  0
    2.5405   -4.3720   -0.0000 C   0  0  0  0  0  0  0  0  0  0  0  0
   -9.1813   -2.1506   -0.0000 C   0  0  0  0  0  0  0  0  0  0  0  0
    5.1401   -5.8491   -0.0000 C   0  0  0  0  0  0  0  0  0  0  0  0
    3.8285   -3.6040   -0.0000 C   0  0  0  0  0  0  0  0  0  0  0  0
  -10.4929   -1.3943   -0.0000 C   0  0  0  0  0  0  0  0  0  0  0  0
    5.1165   -4.3366   -0.0000 C   0  0  0  0  0  0  0  0  0  0  0  0
  -11.8754   -1.9970   -0.0000 N   0  0  0  0  0  0  0  0  0  0  0  0
  -10.6701    0.1063   -0.0000 C   0  0  0  0  0  0  0  0  0  0  0  0
  -12.8916   -0.8626   -0.0000 C   0  0  0  0  0  0  0  0  0  0  0  0
  -12.1472    0.4372   -0.0000 N   0  0  0  0  0  0  0  0  0  0  0  0
  1  2  1  0
  1  3  1  0
  2  4  2  0
  2  5  1  0
  3  6  1  0
  4  7  1  0
  5  8  2  0
  6  9  1  0
  7 10  2  0
  9 11  1  0
 10 12  1  0
 11 13  1  0
 11 14  1  0
 12 15  1  0
 13 16  1  0
 14 17  1  0
 15 18  1  0
 16 19  1  0
 18 20  1  0
 18 21  1  0
 19 22  1  0
 20 23  1  0
 21 24  1  0
 22 25  1  0
 23 26  1  0
 25 27  1  0
 25 28  2  0
 27 29  2  0
 28 30  1  0
  8 10  1  0
 17 19  1  0
 24 26  1  0
 29 30  1  0
M  END
>  <MolRegNo>  (1) 
339627

>  <m>  (1) 
=

>  <Value>  (1) 
1000

>  <Unit>  (1) 
nM

>  <Type>  (1) 
IC50

>  <pValue>  (1) 
6

>  <Ligand Efficiency>  (1) 
0

>  <Binding Efficiency>  (1) 
0

>  <Surface Efficiency>  (1) 
0

>  <Assay Index>  (1) 
257620

>  <Assay Category>  (1) 


>  <Assay Organism>  (1) 
Homo sapiens

>  <Target ID>  (1) 
11365

>  <Target Name>  (1) 
Cytochrome P450 2D6

>  <Target Organism>  (1) 
Homo sapiens

>  <Target Description>  (1) 
Target is a single protein chain

>  <Sequence Accession>  (1) 
P10635

>  <Reference>  (1) 
Bioorg Med Chem Lett 16 (4), 989-994 (2006)

>  <Pubmed ID>  (1) 
16297617

>  <DOI>  (1) 
10.1016/j.bmcl.2005.10.087

$$$$
