4wnv_ligand_151
     RDKit          2D

 28 30  0  0  0  0  0  0  0  0999 V2000
    0.0000   -0.0000   -0.0000 O   0  0  0  0  0  0  0  0  0  0  0  0
    0.9793   -1.1308   -0.0000 C   0  0  0  0  0  0  0  0  0  0  0  0
    2.4482   -0.8394   -0.0000 C   0  0  0  0  0  0  0  0  0  0  0  0
    0.4780   -2.5414   -0.0000 C   0  0  0  0  0  0  0  0  0  0  0  0
    3.4274   -1.9702   -0.0000 C   0  0  0  0  0  0  0  0  0  0  0  0
    2.9261    0.5946   -0.0000 C   0  0  0  0  0  0  0  0  0  0  0  0
    1.4572   -3.6722   -0.0000 C   0  0  0  0  0  0  0  0  0  0  0  0
    2.9261   -3.3808   -0.0000 O   0  0  0  0  0  0  0  0  0  0  0  0
    4.8963   -1.6787   -0.0000 C   0  0  0  0  0  0  0  0  0  0  0  0
    4.3950    0.8860   -0.0000 C   0  0  0  0  0  0  0  0  0  0  0  0
    0.9559   -5.0828   -0.0000 C   0  0  0  0  0  0  0  0  0  0  0  0
    5.3743   -0.2448   -0.0000 C   0  0  0  0  0  0  0  0  0  0  0  0
    5.8756   -2.8096   -0.0000 C   0  0  0  0  0  0  0  0  0  0  0  0
    1.9352   -6.2137   -0.0000 C   0  0  0  0  0  0  0  0  0  0  0  0
   -0.5363   -5.3510   -0.0000 C   0  0  0  0  0  0  0  0  0  0  0  0
    7.3445   -2.5181   -0.0000 C   0  0  0  0  0  0  0  0  0  0  0  0
    1.4339   -7.6243   -0.0000 C   0  0  0  0  0  0  0  0  0  0  0  0
   -1.0376   -6.7616   -0.0000 C   0  0  0  0  0  0  0  0  0  0  0  0
    7.8224   -1.0842   -0.0000 O   0  0  0  0  0  0  0  0  0  0  0  0
    8.3237   -3.6489   -0.0000 O   0  0  0  0  0  0  0  0  0  0  0  0
   -0.0583   -7.8924   -0.0000 C   0  0  0  0  0  0  0  0  0  0  0  0
    9.7926   -3.3575   -0.0000 C   0  0  0  0  0  0  0  0  0  0  0  0
   10.7719   -4.4883   -0.0000 C   0  0  0  0  0  0  0  0  0  0  0  0
   12.2408   -4.1968   -0.0000 N   0  0  0  0  0  0  0  0  0  0  0  0
   13.2200   -5.3277   -0.0000 C   0  0  0  0  0  0  0  0  0  0  0  0
   12.7188   -2.7629   -0.0000 C   0  0  0  0  0  0  0  0  0  0  0  0
   14.6889   -5.0362   -0.0000 C   0  0  0  0  0  0  0  0  0  0  0  0
   14.1877   -2.4715   -0.0000 C   0  0  0  0  0  0  0  0  0  0  0  0
  1  2  2  0
  2  3  1  0
  2  4  1  0
  3  5  2  0
  3  6  1  0
  4  7  2  0
  5  8  1  0
  5  9  1  0
  6 10  2  0
  7 11  1  0
  9 12  2  0
  9 13  1  0
 11 14  2  0
 11 15  1  0
 13 16  1  0
 14 17  1  0
 15 18  2  0
 16 19  2  0
 16 20  1  0
 17 21  2  0
 20 22  1  0
 22 23  1  0
 23 24  1  0
 24 25  1  0
 24 26  1  0
 25 27  1  0
 26 28  1  0
  7  8  1  0
 10 12  1  0
 18 21  1  0
M  END
>  <MolRegNo>  (1) 
314002

>  <m>  (1) 
=

>  <Value>  (1) 
8700

>  <Unit>  (1) 
nM

>  <Type>  (1) 
IC50

>  <pValue>  (1) 
5.06

>  <Ligand Efficiency>  (1) 
0

>  <Binding Efficiency>  (1) 
0

>  <Surface Efficiency>  (1) 
0

>  <Assay Index>  (1) 
237541

>  <Assay Category>  (1) 


>  <Assay Organism>  (1) 


>  <Target ID>  (1) 
11365

>  <Target Name>  (1) 
Cytochrome P450 2D6

>  <Target Organism>  (1) 
Homo sapiens

>  <Target Description>  (1) 
Target is a single protein chain

>  <Sequence Accession>  (1) 
P10635

>  <Reference>  (1) 
J Med Chem 47 (22), 5340-5346 (2004)

>  <Pubmed ID>  (1) 
15481972

>  <DOI>  (1) 
10.1021/jm049934e

$$$$
