4wnv_ligand_219
     RDKit          2D

 32 35  0  0  1  0  0  0  0  0999 V2000
    0.0000   -0.0000   -0.0000 S   0  0  0  0  0  0  0  0  0  0  0  0
   -0.0119   -1.4882   -0.0000 O   0  0  0  0  0  0  0  0  0  0  0  0
    0.0000    1.5121   -0.0000 O   0  0  0  0  0  0  0  0  0  0  0  0
    1.4882    0.0119   -0.0000 N   0  0  0  0  0  0  0  0  0  0  0  0
   -1.5240    0.0238   -0.0000 C   0  0  0  0  0  0  0  0  0  0  0  0
    2.2264    1.3216   -0.0000 C   0  0  0  0  0  0  0  0  0  0  0  0
    3.7028    1.3335   -0.0000 C   0  0  0  0  0  0  0  0  0  0  0  0
    1.4644    2.6312   -0.0000 C   0  0  0  0  0  0  0  0  0  0  0  0
    4.4290    2.6312   -0.0000 C   0  0  0  0  0  0  0  0  0  0  0  0
    2.2026    3.9409   -0.0000 C   0  0  0  0  0  0  0  0  0  0  0  0
    3.6670    3.9409   -0.0000 C   0  0  0  0  0  0  0  0  0  0  0  0
    5.8816    2.9527   -0.0000 C   0  0  0  0  0  0  0  0  0  0  0  0
    4.6552    5.0720   -0.0000 O   0  0  0  0  0  0  0  0  0  0  0  0
    6.0244    4.4528   -0.0000 C   0  0  0  0  0  0  0  0  0  0  0  0
    7.3103    5.2148   -0.0000 C   0  0  0  0  0  0  0  0  0  0  0  0
    7.2984    6.7269   -0.0000 O   0  0  0  0  0  0  0  0  0  0  0  0
    8.5961    4.4767   -0.0000 N   0  0  0  0  0  0  0  0  0  0  0  0
    9.8820    5.2386   -0.0000 C   0  0  0  0  0  0  0  0  0  0  0  0
    8.5842    2.9884   -0.0000 C   0  0  0  0  0  0  0  0  0  0  0  0
    9.8701    6.7507   -0.0000 C   0  0  0  0  0  0  0  0  0  0  0  0
   11.1678    4.5005   -0.0000 C   0  0  0  0  0  0  0  0  0  0  0  0
    8.5604    7.5127   -0.0000 C   0  0  0  0  0  0  0  0  0  0  0  0
   11.1678    7.5127   -0.0000 C   0  0  0  0  0  0  0  0  0  0  0  0
   12.4537    5.2625   -0.0000 N   0  0  0  0  0  0  0  0  0  0  0  0
    8.5485    9.0367   -0.0000 C   0  0  0  0  0  0  0  0  0  0  0  0
   11.1559    9.0367   -0.0000 C   0  0  0  0  0  0  0  0  0  0  0  0
   13.8110    4.6672   -0.0000 C   0  0  0  0  0  0  0  0  0  0  0  0
   12.5965    6.7745   -0.0000 C   0  0  0  0  0  0  0  0  0  0  0  0
    9.8344    9.7986   -0.0000 C   0  0  0  0  0  0  0  0  0  0  0  0
   14.7992    5.7982   -0.0000 C   0  0  0  0  0  0  0  0  0  0  0  0
   14.0491    7.0960   -0.0000 C   0  0  0  0  0  0  0  0  0  0  0  0
   16.2755    5.6553   -0.0000 O   0  0  0  0  0  0  0  0  0  0  0  0
  1  2  2  0
  1  3  2  0
  1  4  1  0
  1  5  1  0
  4  6  1  0
  6  7  2  0
  6  8  1  0
  7  9  1  0
  8 10  2  0
  9 11  2  0
  9 12  1  0
 11 13  1  0
 12 14  1  0
 14 15  1  1
 15 16  2  0
 15 17  1  0
 18 17  1  0
 17 19  1  0
 18 20  1  0
 18 21  1  1
 20 22  2  0
 20 23  1  0
 21 24  1  0
 22 25  1  0
 23 26  2  0
 24 27  1  0
 24 28  1  0
 25 29  2  0
 27 30  1  0
 28 31  1  0
 30 32  1  6
 10 11  1  0
 13 14  1  0
 26 29  1  0
 30 31  1  0
M  END
>  <MolRegNo>  (1) 
332137

>  <m>  (1) 
=

>  <Value>  (1) 
5400

>  <Unit>  (1) 
nM

>  <Type>  (1) 
IC50

>  <pValue>  (1) 
5.27

>  <Ligand Efficiency>  (1) 
0

>  <Binding Efficiency>  (1) 
0

>  <Surface Efficiency>  (1) 
0

>  <Assay Index>  (1) 
253815

>  <Assay Category>  (1) 


>  <Assay Organism>  (1) 
Homo sapiens

>  <Target ID>  (1) 
11365

>  <Target Name>  (1) 
Cytochrome P450 2D6

>  <Target Organism>  (1) 
Homo sapiens

>  <Target Description>  (1) 
Target is a single protein chain

>  <Sequence Accession>  (1) 
P10635

>  <Reference>  (1) 
Bioorg Med Chem Lett 15 (23), 5114-5119 (2005)

>  <Pubmed ID>  (1) 
16203140

>  <DOI>  (1) 
10.1016/j.bmcl.2005.08.094

$$$$
