4wnv_ligand_678
     RDKit          2D

 29 31  0  0  0  0  0  0  0  0999 V2000
    0.0000   -0.0000   -0.0000 Cl  0  0  0  0  0  0  0  0  0  0  0  0
   -1.3032    0.7632   -0.0000 C   0  0  0  0  0  0  0  0  0  0  0  0
   -1.3150    2.2660   -0.0000 C   0  0  0  0  0  0  0  0  0  0  0  0
   -2.6065    0.0235   -0.0000 C   0  0  0  0  0  0  0  0  0  0  0  0
   -2.6182    3.0174   -0.0000 C   0  0  0  0  0  0  0  0  0  0  0  0
   -3.9097    0.7866   -0.0000 C   0  0  0  0  0  0  0  0  0  0  0  0
   -3.9215    2.2895   -0.0000 C   0  0  0  0  0  0  0  0  0  0  0  0
   -5.2247    3.0409   -0.0000 C   0  0  0  0  0  0  0  0  0  0  0  0
   -6.5280    2.3130   -0.0000 N   0  0  0  0  0  0  0  0  0  0  0  0
   -5.2365    4.5437   -0.0000 C   0  0  0  0  0  0  0  0  0  0  0  0
   -7.8312    3.0644   -0.0000 C   0  0  0  0  0  0  0  0  0  0  0  0
   -3.9567    5.2952   -0.0000 C   0  0  0  0  0  0  0  0  0  0  0  0
   -6.5397    5.2952   -0.0000 C   0  0  0  0  0  0  0  0  0  0  0  0
   -7.8429    4.5672   -0.0000 O   0  0  0  0  0  0  0  0  0  0  0  0
   -9.1345    2.3364   -0.0000 C   0  0  0  0  0  0  0  0  0  0  0  0
   -3.9684    6.7980   -0.0000 C   0  0  0  0  0  0  0  0  0  0  0  0
   -6.5514    6.7980   -0.0000 C   0  0  0  0  0  0  0  0  0  0  0  0
  -10.4377    3.0879   -0.0000 N   0  0  0  0  0  0  0  0  0  0  0  0
   -5.2717    7.5494   -0.0000 C   0  0  0  0  0  0  0  0  0  0  0  0
  -11.7409    2.3599   -0.0000 C   0  0  0  0  0  0  0  0  0  0  0  0
  -11.7527    0.8806   -0.0000 O   0  0  0  0  0  0  0  0  0  0  0  0
  -13.0442    3.1113   -0.0000 C   0  0  0  0  0  0  0  0  0  0  0  0
  -14.3474    2.3834   -0.0000 C   0  0  0  0  0  0  0  0  0  0  0  0
  -13.0559    4.6142   -0.0000 C   0  0  0  0  0  0  0  0  0  0  0  0
  -15.6507    3.1348   -0.0000 C   0  0  0  0  0  0  0  0  0  0  0  0
  -14.3592    5.3656   -0.0000 C   0  0  0  0  0  0  0  0  0  0  0  0
  -15.6624    4.6377   -0.0000 C   0  0  0  0  0  0  0  0  0  0  0  0
  -16.9657    5.3891   -0.0000 C   0  0  0  0  0  0  0  0  0  0  0  0
  -18.2689    6.1523   -0.0000 N   0  0  0  0  0  0  0  0  0  0  0  0
  1  2  1  0
  2  3  2  0
  2  4  1  0
  3  5  1  0
  4  6  2  0
  5  7  2  0
  7  8  1  0
  8  9  1  0
  8 10  1  0
  9 11  1  0
 10 12  2  0
 10 13  1  0
 11 14  2  0
 11 15  1  0
 12 16  1  0
 13 17  2  0
 15 18  1  0
 16 19  2  0
 18 20  1  0
 20 21  2  0
 20 22  1  0
 22 23  2  0
 22 24  1  0
 23 25  1  0
 24 26  2  0
 25 27  2  0
 27 28  1  0
 28 29  3  0
  6  7  1  0
 17 19  1  0
 26 27  1  0
M  END
>  <MolRegNo>  (1) 
490805

>  <m>  (1) 
=

>  <Value>  (1) 
4900

>  <Unit>  (1) 
nM

>  <Type>  (1) 
IC50

>  <pValue>  (1) 
5.31

>  <Ligand Efficiency>  (1) 
0

>  <Binding Efficiency>  (1) 
0

>  <Surface Efficiency>  (1) 
0

>  <Assay Index>  (1) 
384945

>  <Assay Category>  (1) 


>  <Assay Organism>  (1) 


>  <Target ID>  (1) 
11365

>  <Target Name>  (1) 
Cytochrome P450 2D6

>  <Target Organism>  (1) 
Homo sapiens

>  <Target Description>  (1) 
Target is a single protein chain

>  <Sequence Accession>  (1) 
P10635

>  <Reference>  (1) 
Bioorg Med Chem Lett 18 (20), 5533-5536 (2008)

>  <Pubmed ID>  (1) 
18805008

>  <DOI>  (1) 
10.1016/j.bmcl.2008.09.005

$$$$
