4wnv_ligand_222
     RDKit          2D

 32 35  0  0  1  0  0  0  0  0999 V2000
    0.0000   -0.0000   -0.0000 S   0  0  0  0  0  0  0  0  0  0  0  0
    1.3009   -0.7280   -0.0000 O   0  0  0  0  0  0  0  0  0  0  0  0
   -1.3248    0.7519   -0.0000 O   0  0  0  0  0  0  0  0  0  0  0  0
   -0.7638   -1.2890   -0.0000 N   0  0  0  0  0  0  0  0  0  0  0  0
    0.7280    1.3248   -0.0000 C   0  0  0  0  0  0  0  0  0  0  0  0
   -0.0239   -2.5779   -0.0000 C   0  0  0  0  0  0  0  0  0  0  0  0
    1.4561   -2.5660   -0.0000 C   0  0  0  0  0  0  0  0  0  0  0  0
   -0.7877   -3.8669   -0.0000 C   0  0  0  0  0  0  0  0  0  0  0  0
    2.4466   -1.4322   -0.0000 O   0  0  0  0  0  0  0  0  0  0  0  0
    2.1960   -3.8550   -0.0000 C   0  0  0  0  0  0  0  0  0  0  0  0
   -0.0477   -5.1559   -0.0000 C   0  0  0  0  0  0  0  0  0  0  0  0
    3.8072   -2.0409   -0.0000 C   0  0  0  0  0  0  0  0  0  0  0  0
    1.4441   -5.1320   -0.0000 C   0  0  0  0  0  0  0  0  0  0  0  0
    3.6521   -3.5327   -0.0000 C   0  0  0  0  0  0  0  0  0  0  0  0
    5.0962   -1.2770   -0.0000 C   0  0  0  0  0  0  0  0  0  0  0  0
    5.0842    0.2387   -0.0000 O   0  0  0  0  0  0  0  0  0  0  0  0
    6.3851   -2.0170   -0.0000 N   0  0  0  0  0  0  0  0  0  0  0  0
    7.6741   -1.2532   -0.0000 C   0  0  0  0  0  0  0  0  0  0  0  0
    6.3732   -3.5088   -0.0000 C   0  0  0  0  0  0  0  0  0  0  0  0
    7.6622    0.2626   -0.0000 C   0  0  0  0  0  0  0  0  0  0  0  0
    8.9631   -1.9931   -0.0000 C   0  0  0  0  0  0  0  0  0  0  0  0
    6.3493    1.0264   -0.0000 C   0  0  0  0  0  0  0  0  0  0  0  0
    8.9631    1.0264   -0.0000 C   0  0  0  0  0  0  0  0  0  0  0  0
   10.2520   -1.2293   -0.0000 N   0  0  0  0  0  0  0  0  0  0  0  0
    6.3374    2.5421   -0.0000 C   0  0  0  0  0  0  0  0  0  0  0  0
    8.9511    2.5541   -0.0000 C   0  0  0  0  0  0  0  0  0  0  0  0
   11.6126   -1.8260   -0.0000 C   0  0  0  0  0  0  0  0  0  0  0  0
   10.3953    0.2864   -0.0000 C   0  0  0  0  0  0  0  0  0  0  0  0
    7.6264    3.3060   -0.0000 C   0  0  0  0  0  0  0  0  0  0  0  0
   12.6032   -0.6922   -0.0000 C   0  0  0  0  0  0  0  0  0  0  0  0
   11.8513    0.6087   -0.0000 C   0  0  0  0  0  0  0  0  0  0  0  0
   14.0831   -0.8354   -0.0000 O   0  0  0  0  0  0  0  0  0  0  0  0
  1  2  2  0
  1  3  2  0
  1  4  1  0
  1  5  1  0
  4  6  1  0
  6  7  2  0
  6  8  1  0
  7  9  1  0
  7 10  1  0
  8 11  2  0
  9 12  1  0
 10 13  2  0
 10 14  1  0
 12 15  1  6
 15 16  2  0
 15 17  1  0
 18 17  1  0
 17 19  1  0
 18 20  1  0
 18 21  1  1
 20 22  2  0
 20 23  1  0
 21 24  1  0
 22 25  1  0
 23 26  2  0
 24 27  1  0
 24 28  1  0
 25 29  2  0
 27 30  1  0
 28 31  1  0
 30 32  1  6
 11 13  1  0
 12 14  1  0
 26 29  1  0
 30 31  1  0
M  END
>  <MolRegNo>  (1) 
332068

>  <m>  (1) 
=

>  <Value>  (1) 
1200

>  <Unit>  (1) 
nM

>  <Type>  (1) 
IC50

>  <pValue>  (1) 
5.92

>  <Ligand Efficiency>  (1) 
0

>  <Binding Efficiency>  (1) 
0

>  <Surface Efficiency>  (1) 
0

>  <Assay Index>  (1) 
253815

>  <Assay Category>  (1) 


>  <Assay Organism>  (1) 
Homo sapiens

>  <Target ID>  (1) 
11365

>  <Target Name>  (1) 
Cytochrome P450 2D6

>  <Target Organism>  (1) 
Homo sapiens

>  <Target Description>  (1) 
Target is a single protein chain

>  <Sequence Accession>  (1) 
P10635

>  <Reference>  (1) 
Bioorg Med Chem Lett 15 (23), 5114-5119 (2005)

>  <Pubmed ID>  (1) 
16203140

>  <DOI>  (1) 
10.1016/j.bmcl.2005.08.094

$$$$
