4wnv_ligand_940
     RDKit          2D

 21 23  0  0  1  0  0  0  0  0999 V2000
    0.0000   -0.0000   -0.0000 Cl  0  0  0  0  0  0  0  0  0  0  0  0
   -1.2845    0.7896   -0.0000 C   0  0  0  0  0  0  0  0  0  0  0  0
   -1.2610    2.2980   -0.0000 C   0  0  0  0  0  0  0  0  0  0  0  0
   -2.6044    0.0825   -0.0000 C   0  0  0  0  0  0  0  0  0  0  0  0
    0.0354    3.0286   -0.0000 Cl  0  0  0  0  0  0  0  0  0  0  0  0
   -2.5573    3.0876   -0.0000 C   0  0  0  0  0  0  0  0  0  0  0  0
   -3.8889    0.8721   -0.0000 C   0  0  0  0  0  0  0  0  0  0  0  0
   -3.8771    2.3805   -0.0000 C   0  0  0  0  0  0  0  0  0  0  0  0
   -4.9495   -0.1768   -0.0000 C   0  0  0  0  0  0  0  0  0  0  0  0
   -5.6920   -1.4613   -0.0000 C   0  0  0  0  0  0  0  0  0  0  0  0
   -4.1953   -1.4495   -0.0000 C   0  0  0  0  0  0  0  0  0  0  0  0
   -5.7155    1.1313   -0.0000 C   0  0  0  0  0  0  0  0  0  0  0  0
   -6.1633   -2.8754   -0.0000 C   0  0  0  0  0  0  0  0  0  0  0  0
   -3.7239   -2.8637   -0.0000 C   0  0  0  0  0  0  0  0  0  0  0  0
   -7.2240    1.1313   -0.0000 O   0  0  0  0  0  0  0  0  0  0  0  0
   -4.9495   -3.7357   -0.0000 N   0  0  0  0  0  0  0  0  0  0  0  0
   -7.9900    2.4276   -0.0000 C   0  0  0  0  0  0  0  0  0  0  0  0
   -9.4984    2.4276   -0.0000 C   0  0  0  0  0  0  0  0  0  0  0  0
  -11.0068    2.4394   -0.0000 F   0  0  0  0  0  0  0  0  0  0  0  0
  -10.2526    1.1431   -0.0000 F   0  0  0  0  0  0  0  0  0  0  0  0
  -10.2644    3.7239   -0.0000 F   0  0  0  0  0  0  0  0  0  0  0  0
  1  2  1  0
  2  3  2  0
  2  4  1  0
  3  5  1  0
  3  6  1  0
  4  7  2  0
  6  8  2  0
  7  9  1  0
  9 10  1  0
  9 11  1  0
  9 12  1  6
 10 13  1  6
 11 14  1  6
 12 15  1  0
 13 16  1  0
 15 17  1  0
 17 18  1  0
 18 19  1  0
 18 20  1  0
 18 21  1  0
  7  8  1  0
 10 11  1  0
 14 16  1  0
M  END
>  <MolRegNo>  (1) 
596972

>  <m>  (1) 
=

>  <Value>  (1) 
300

>  <Unit>  (1) 
nM

>  <Type>  (1) 
IC50

>  <pValue>  (1) 
6.52

>  <Ligand Efficiency>  (1) 
0

>  <Binding Efficiency>  (1) 
0

>  <Surface Efficiency>  (1) 
0

>  <Assay Index>  (1) 
459217

>  <Assay Category>  (1) 


>  <Assay Organism>  (1) 
Homo sapiens

>  <Target ID>  (1) 
11365

>  <Target Name>  (1) 
Cytochrome P450 2D6

>  <Target Organism>  (1) 
Homo sapiens

>  <Target Description>  (1) 
Target is a single protein chain

>  <Sequence Accession>  (1) 
P10635

>  <Reference>  (1) 
J Med Chem 53 (6), 2534-2551 (2010)

>  <Pubmed ID>  (1) 
20170186

>  <DOI>  (1) 
10.1021/jm901818u

$$$$
