4wnv_ligand_130
     RDKit          2D

 30 32  0  0  0  0  0  0  0  0999 V2000
    0.0000   -0.0000   -0.0000 O   0  0  0  0  0  0  0  0  0  0  0  0
    0.0000   -1.4971   -0.0000 C   0  0  0  0  0  0  0  0  0  0  0  0
    1.2951    0.7723   -0.0000 C   0  0  0  0  0  0  0  0  0  0  0  0
   -1.3070   -2.2338   -0.0000 C   0  0  0  0  0  0  0  0  0  0  0  0
    1.2951   -2.2338   -0.0000 C   0  0  0  0  0  0  0  0  0  0  0  0
    2.5903    0.0356   -0.0000 C   0  0  0  0  0  0  0  0  0  0  0  0
   -2.6259   -1.4734   -0.0000 C   0  0  0  0  0  0  0  0  0  0  0  0
   -1.3189   -3.7072   -0.0000 C   0  0  0  0  0  0  0  0  0  0  0  0
    1.2832   -3.7190   -0.0000 C   0  0  0  0  0  0  0  0  0  0  0  0
    2.5784   -1.4615   -0.0000 O   0  0  0  0  0  0  0  0  0  0  0  0
    3.8854    0.8199   -0.0000 C   0  0  0  0  0  0  0  0  0  0  0  0
   -3.9448   -0.7248   -0.0000 N   0  0  0  0  0  0  0  0  0  0  0  0
   -0.0238   -4.4557   -0.0000 C   0  0  0  0  0  0  0  0  0  0  0  0
    5.1805    0.0832   -0.0000 N   0  0  0  0  0  0  0  0  0  0  0  0
    6.6301    0.4872   -0.0000 C   0  0  0  0  0  0  0  0  0  0  0  0
    5.5607   -1.3664   -0.0000 C   0  0  0  0  0  0  0  0  0  0  0  0
    7.9252    1.2595   -0.0000 C   0  0  0  0  0  0  0  0  0  0  0  0
    8.0797    0.1069   -0.0000 C   0  0  0  0  0  0  0  0  0  0  0  0
    6.6063    2.0080   -0.0000 C   0  0  0  0  0  0  0  0  0  0  0  0
    7.0103   -1.7466   -0.0000 C   0  0  0  0  0  0  0  0  0  0  0  0
    9.3511    0.9030   -0.0000 C   0  0  0  0  0  0  0  0  0  0  0  0
    8.4599   -2.1269   -0.0000 C   0  0  0  0  0  0  0  0  0  0  0  0
   10.8244    1.1407   -0.0000 N   0  0  0  0  0  0  0  0  0  0  0  0
    9.1134   -0.5822   -0.0000 C   0  0  0  0  0  0  0  0  0  0  0  0
   11.5136   -0.1901   -0.0000 C   0  0  0  0  0  0  0  0  0  0  0  0
   10.4442   -1.2595   -0.0000 C   0  0  0  0  0  0  0  0  0  0  0  0
   12.9513   -0.5466   -0.0000 C   0  0  0  0  0  0  0  0  0  0  0  0
   10.8244   -2.7091   -0.0000 C   0  0  0  0  0  0  0  0  0  0  0  0
   13.3553   -1.9962   -0.0000 C   0  0  0  0  0  0  0  0  0  0  0  0
   12.2740   -3.0893   -0.0000 C   0  0  0  0  0  0  0  0  0  0  0  0
  1  2  1  0
  1  3  1  0
  2  4  2  0
  2  5  1  0
  3  6  1  0
  4  7  1  0
  4  8  1  0
  5  9  2  0
  6 10  1  0
  6 11  1  0
  7 12  3  0
  8 13  2  0
 11 14  1  0
 14 15  1  0
 14 16  1  0
 15 17  1  0
 15 18  1  0
 15 19  1  0
 16 20  1  0
 17 21  1  0
 20 22  3  0
 21 23  1  0
 21 24  2  0
 23 25  1  0
 24 26  1  0
 25 27  2  0
 26 28  2  0
 27 29  1  0
 28 30  1  0
  9 13  1  0
 25 26  1  0
 29 30  2  0
M  END
>  <MolRegNo>  (1) 
301523

>  <m>  (1) 
=

>  <Value>  (1) 
670

>  <Unit>  (1) 
nM

>  <Type>  (1) 
IC50

>  <pValue>  (1) 
6.17

>  <Ligand Efficiency>  (1) 
0

>  <Binding Efficiency>  (1) 
0

>  <Surface Efficiency>  (1) 
0

>  <Assay Index>  (1) 
238811

>  <Assay Category>  (1) 


>  <Assay Organism>  (1) 
Homo sapiens

>  <Target ID>  (1) 
11365

>  <Target Name>  (1) 
Cytochrome P450 2D6

>  <Target Organism>  (1) 
Homo sapiens

>  <Target Description>  (1) 
Target is a single protein chain

>  <Sequence Accession>  (1) 
P10635

>  <Reference>  (1) 
Bioorg Med Chem Lett 15 (17), 3816-3820 (2005)

>  <Pubmed ID>  (1) 
15993593

>  <DOI>  (1) 
10.1016/j.bmcl.2005.06.007

$$$$
