4wnv_ligand_472
     RDKit          2D

 30 32  0  0  1  0  0  0  0  0999 V2000
    0.0000   -0.0000   -0.0000 F   0  0  0  0  0  0  0  0  0  0  0  0
   -1.3128    0.7333   -0.0000 C   0  0  0  0  0  0  0  0  0  0  0  0
   -2.6137   -0.0118   -0.0000 C   0  0  0  0  0  0  0  0  0  0  0  0
   -1.3483    2.2471   -0.0000 C   0  0  0  0  0  0  0  0  0  0  0  0
   -3.9265    0.7333   -0.0000 C   0  0  0  0  0  0  0  0  0  0  0  0
   -2.6610    2.9922   -0.0000 C   0  0  0  0  0  0  0  0  0  0  0  0
   -3.9501    2.2353   -0.0000 C   0  0  0  0  0  0  0  0  0  0  0  0
   -5.2629    2.9803   -0.0000 C   0  0  0  0  0  0  0  0  0  0  0  0
   -6.5639    2.2234   -0.0000 C   0  0  0  0  0  0  0  0  0  0  0  0
   -7.8766    2.9803   -0.0000 C   0  0  0  0  0  0  0  0  0  0  0  0
   -6.5639    0.7451   -0.0000 C   0  0  0  0  0  0  0  0  0  0  0  0
   -9.1658    2.2234   -0.0000 N   0  0  0  0  0  0  0  0  0  0  0  0
   -7.8530   -0.0000   -0.0000 C   0  0  0  0  0  0  0  0  0  0  0  0
   -9.1539    0.7333   -0.0000 C   0  0  0  0  0  0  0  0  0  0  0  0
  -10.4667    2.9803   -0.0000 C   0  0  0  0  0  0  0  0  0  0  0  0
  -11.7676    2.2471   -0.0000 C   0  0  0  0  0  0  0  0  0  0  0  0
  -13.0686    2.9922   -0.0000 C   0  0  0  0  0  0  0  0  0  0  0  0
  -14.3695    2.2589   -0.0000 N   0  0  0  0  0  0  0  0  0  0  0  0
  -15.6705    3.0158   -0.0000 C   0  0  0  0  0  0  0  0  0  0  0  0
  -15.6823    4.5178   -0.0000 O   0  0  0  0  0  0  0  0  0  0  0  0
  -16.9833    2.2826   -0.0000 N   0  0  0  0  0  0  0  0  0  0  0  0
  -18.2842    3.0395   -0.0000 C   0  0  0  0  0  0  0  0  0  0  0  0
  -19.5733    2.3062   -0.0000 C   0  0  0  0  0  0  0  0  0  0  0  0
  -18.2842    4.5415   -0.0000 C   0  0  0  0  0  0  0  0  0  0  0  0
  -20.8743    3.0631   -0.0000 C   0  0  0  0  0  0  0  0  0  0  0  0
  -19.5851    5.2984   -0.0000 C   0  0  0  0  0  0  0  0  0  0  0  0
  -22.1752    2.3299   -0.0000 C   0  0  0  0  0  0  0  0  0  0  0  0
  -20.8979    4.5770   -0.0000 C   0  0  0  0  0  0  0  0  0  0  0  0
  -23.4762    3.0868   -0.0000 O   0  0  0  0  0  0  0  0  0  0  0  0
  -22.1752    0.8515   -0.0000 C   0  0  0  0  0  0  0  0  0  0  0  0
  1  2  1  0
  2  3  2  0
  2  4  1  0
  3  5  1  0
  4  6  2  0
  5  7  2  0
  7  8  1  0
  9  8  1  6
  9 10  1  0
  9 11  1  0
 10 12  1  0
 11 13  1  0
 12 14  1  0
 12 15  1  0
 15 16  1  0
 16 17  2  0
 17 18  1  0
 18 19  1  0
 19 20  2  0
 19 21  1  0
 21 22  1  0
 22 23  2  0
 22 24  1  0
 23 25  1  0
 24 26  2  0
 25 27  1  0
 25 28  2  0
 27 29  2  0
 27 30  1  0
  6  7  1  0
 13 14  1  0
 26 28  1  0
M  END
>  <MolRegNo>  (1) 
421540

>  <m>  (1) 
=

>  <Value>  (1) 
680

>  <Unit>  (1) 
nM

>  <Type>  (1) 
IC50

>  <pValue>  (1) 
6.17

>  <Ligand Efficiency>  (1) 
0

>  <Binding Efficiency>  (1) 
0

>  <Surface Efficiency>  (1) 
0

>  <Assay Index>  (1) 
307824

>  <Assay Category>  (1) 


>  <Assay Organism>  (1) 
Homo sapiens

>  <Target ID>  (1) 
11365

>  <Target Name>  (1) 
Cytochrome P450 2D6

>  <Target Organism>  (1) 
Homo sapiens

>  <Target Description>  (1) 
Target is a single protein chain

>  <Sequence Accession>  (1) 
P10635

>  <Reference>  (1) 
Bioorg Med Chem Lett 17 (11), 2992-2997 (2007)

>  <Pubmed ID>  (1) 
17418570

>  <DOI>  (1) 
10.1016/j.bmcl.2007.03.065

$$$$
