4wnv_ligand_684
     RDKit          2D

 24 27  0  0  0  0  0  0  0  0999 V2000
    0.0000   -0.0000   -0.0000 O   0  0  0  0  0  0  0  0  0  0  0  0
   -0.0237    1.5166   -0.0000 N   0  0  0  0  0  0  0  0  0  0  0  0
   -1.4337   -0.4621   -0.0000 C   0  0  0  0  0  0  0  0  0  0  0  0
   -1.4692    1.9787   -0.0000 C   0  0  0  0  0  0  0  0  0  0  0  0
   -2.3341    0.7583   -0.0000 N   0  0  0  0  0  0  0  0  0  0  0  0
   -1.8957   -1.8839   -0.0000 C   0  0  0  0  0  0  0  0  0  0  0  0
   -1.9550    3.4123   -0.0000 C   0  0  0  0  0  0  0  0  0  0  0  0
   -1.0190   -3.0806   -0.0000 N   0  0  0  0  0  0  0  0  0  0  0  0
   -3.3412   -2.3460   -0.0000 C   0  0  0  0  0  0  0  0  0  0  0  0
   -0.9716    4.5498   -0.0000 N   0  0  0  0  0  0  0  0  0  0  0  0
   -1.9076   -4.2891   -0.0000 N   0  0  0  0  0  0  0  0  0  0  0  0
   -3.3412   -3.8389   -0.0000 C   0  0  0  0  0  0  0  0  0  0  0  0
   -4.6564   -1.5877   -0.0000 C   0  0  0  0  0  0  0  0  0  0  0  0
   -1.4455   -5.6991   -0.0000 C   0  0  0  0  0  0  0  0  0  0  0  0
   -4.6564   -4.5853   -0.0000 C   0  0  0  0  0  0  0  0  0  0  0  0
   -5.9597   -2.3223   -0.0000 C   0  0  0  0  0  0  0  0  0  0  0  0
    0.0118   -5.9953   -0.0000 C   0  0  0  0  0  0  0  0  0  0  0  0
   -5.9716   -3.8270   -0.0000 C   0  0  0  0  0  0  0  0  0  0  0  0
    0.4739   -7.4052   -0.0000 C   0  0  0  0  0  0  0  0  0  0  0  0
   -0.5332   -8.5071   -0.0000 C   0  0  0  0  0  0  0  0  0  0  0  0
    1.9313   -7.6896   -0.0000 C   0  0  0  0  0  0  0  0  0  0  0  0
   -0.0711   -9.9171   -0.0000 C   0  0  0  0  0  0  0  0  0  0  0  0
    2.3934   -9.0996   -0.0000 C   0  0  0  0  0  0  0  0  0  0  0  0
    1.3863  -10.2133   -0.0000 C   0  0  0  0  0  0  0  0  0  0  0  0
  1  2  1  0
  1  3  1  0
  2  4  2  0
  3  5  2  0
  3  6  1  0
  4  7  1  0
  6  8  2  0
  6  9  1  0
  7 10  1  0
  8 11  1  0
  9 12  2  0
  9 13  1  0
 11 14  1  0
 12 15  1  0
 13 16  2  0
 14 17  1  0
 15 18  2  0
 17 19  1  0
 19 20  2  0
 19 21  1  0
 20 22  1  0
 21 23  2  0
 22 24  2  0
  4  5  1  0
 11 12  1  0
 16 18  1  0
 23 24  1  0
M  END
>  <MolRegNo>  (1) 
480902

>  <m>  (1) 
=

>  <Value>  (1) 
1320

>  <Unit>  (1) 
nM

>  <Type>  (1) 
IC50

>  <pValue>  (1) 
5.88

>  <Ligand Efficiency>  (1) 
0

>  <Binding Efficiency>  (1) 
0

>  <Surface Efficiency>  (1) 
0

>  <Assay Index>  (1) 
349782

>  <Assay Category>  (1) 


>  <Assay Organism>  (1) 
Homo sapiens

>  <Target ID>  (1) 
11365

>  <Target Name>  (1) 
Cytochrome P450 2D6

>  <Target Organism>  (1) 
Homo sapiens

>  <Target Description>  (1) 
Target is a single protein chain

>  <Sequence Accession>  (1) 
P10635

>  <Reference>  (1) 
J Med Chem 52 (9), 2694-2707 (2009)

>  <Pubmed ID>  (1) 
19341281

>  <DOI>  (1) 
10.1021/jm801180p

$$$$
