4wnv_ligand_253
     RDKit          2D

 28 31  0  0  0  0  0  0  0  0999 V2000
    0.0000   -0.0000   -0.0000 O   0  0  0  0  0  0  0  0  0  0  0  0
    1.2761    0.7680   -0.0000 C   0  0  0  0  0  0  0  0  0  0  0  0
   -1.3115    0.7444   -0.0000 C   0  0  0  0  0  0  0  0  0  0  0  0
    2.5758    0.0354   -0.0000 C   0  0  0  0  0  0  0  0  0  0  0  0
    1.2524    2.2686   -0.0000 C   0  0  0  0  0  0  0  0  0  0  0  0
   -2.6112   -0.0000   -0.0000 C   0  0  0  0  0  0  0  0  0  0  0  0
    3.8518    0.8034   -0.0000 C   0  0  0  0  0  0  0  0  0  0  0  0
    2.5285    3.0484   -0.0000 C   0  0  0  0  0  0  0  0  0  0  0  0
   -3.9227    0.7680   -0.0000 C   0  0  0  0  0  0  0  0  0  0  0  0
    3.8282    2.3158   -0.0000 C   0  0  0  0  0  0  0  0  0  0  0  0
   -5.2342    0.0354   -0.0000 N   0  0  0  0  0  0  0  0  0  0  0  0
    5.1042    3.0956   -0.0000 C   0  0  0  0  0  0  0  0  0  0  0  0
   -5.2460   -1.4533   -0.0000 C   0  0  0  0  0  0  0  0  0  0  0  0
   -6.5339    0.7916   -0.0000 C   0  0  0  0  0  0  0  0  0  0  0  0
    6.4039    2.3631   -0.0000 C   0  0  0  0  0  0  0  0  0  0  0  0
    5.0806    4.5962   -0.0000 C   0  0  0  0  0  0  0  0  0  0  0  0
   -6.5457   -2.1858   -0.0000 C   0  0  0  0  0  0  0  0  0  0  0  0
   -7.8454    0.0591   -0.0000 C   0  0  0  0  0  0  0  0  0  0  0  0
    7.6800    3.1311   -0.0000 N   0  0  0  0  0  0  0  0  0  0  0  0
    6.3685    5.3642   -0.0000 C   0  0  0  0  0  0  0  0  0  0  0  0
   -7.8572   -1.4297   -0.0000 C   0  0  0  0  0  0  0  0  0  0  0  0
    7.6564    4.6434   -0.0000 C   0  0  0  0  0  0  0  0  0  0  0  0
   -9.1687   -2.1622   -0.0000 C   0  0  0  0  0  0  0  0  0  0  0  0
  -10.4684   -1.4060   -0.0000 C   0  0  0  0  0  0  0  0  0  0  0  0
  -11.8508   -2.0086   -0.0000 N   0  0  0  0  0  0  0  0  0  0  0  0
  -10.6456    0.0945   -0.0000 C   0  0  0  0  0  0  0  0  0  0  0  0
  -12.8669   -0.8743   -0.0000 C   0  0  0  0  0  0  0  0  0  0  0  0
  -12.1226    0.4135   -0.0000 N   0  0  0  0  0  0  0  0  0  0  0  0
  1  2  1  0
  1  3  1  0
  2  4  2  0
  2  5  1  0
  3  6  1  0
  4  7  1  0
  5  8  2  0
  6  9  1  0
  7 10  2  0
  9 11  1  0
 10 12  1  0
 11 13  1  0
 11 14  1  0
 12 15  2  0
 12 16  1  0
 13 17  1  0
 14 18  1  0
 15 19  1  0
 16 20  2  0
 17 21  1  0
 19 22  2  0
 21 23  1  0
 23 24  1  0
 24 25  1  0
 24 26  2  0
 25 27  2  0
 26 28  1  0
  8 10  1  0
 18 21  1  0
 20 22  1  0
 27 28  1  0
M  END
>  <MolRegNo>  (1) 
339649

>  <m>  (1) 
=

>  <Value>  (1) 
300

>  <Unit>  (1) 
nM

>  <Type>  (1) 
IC50

>  <pValue>  (1) 
6.52

>  <Ligand Efficiency>  (1) 
0

>  <Binding Efficiency>  (1) 
0

>  <Surface Efficiency>  (1) 
0

>  <Assay Index>  (1) 
257619

>  <Assay Category>  (1) 


>  <Assay Organism>  (1) 
Homo sapiens

>  <Target ID>  (1) 
11365

>  <Target Name>  (1) 
Cytochrome P450 2D6

>  <Target Organism>  (1) 
Homo sapiens

>  <Target Description>  (1) 
Target is a single protein chain

>  <Sequence Accession>  (1) 
P10635

>  <Reference>  (1) 
Bioorg Med Chem Lett 16 (4), 989-994 (2006)

>  <Pubmed ID>  (1) 
16297617

>  <DOI>  (1) 
10.1016/j.bmcl.2005.10.087

$$$$
