4wnv_ligand_1040
     RDKit          2D

 19 21  0  0  0  0  0  0  0  0999 V2000
    0.0000   -0.0000   -0.0000 N   0  0  0  0  0  0  0  0  0  0  0  0
   -0.9044   -1.1981   -0.0000 N   0  0  0  0  0  0  0  0  0  0  0  0
   -0.8927    1.2333   -0.0000 C   0  0  0  0  0  0  0  0  0  0  0  0
   -2.3492   -0.7165   -0.0000 C   0  0  0  0  0  0  0  0  0  0  0  0
   -2.3374    0.7870   -0.0000 C   0  0  0  0  0  0  0  0  0  0  0  0
   -3.6530   -1.4448   -0.0000 C   0  0  0  0  0  0  0  0  0  0  0  0
   -3.6412    1.5387   -0.0000 C   0  0  0  0  0  0  0  0  0  0  0  0
   -4.9568   -0.6813   -0.0000 C   0  0  0  0  0  0  0  0  0  0  0  0
   -4.9333    0.8105   -0.0000 C   0  0  0  0  0  0  0  0  0  0  0  0
   -6.2254    1.5622   -0.0000 N   0  0  0  0  0  0  0  0  0  0  0  0
   -6.2371    3.0657   -0.0000 C   0  0  0  0  0  0  0  0  0  0  0  0
   -7.5174    0.8340   -0.0000 C   0  0  0  0  0  0  0  0  0  0  0  0
   -7.5292    3.8292   -0.0000 C   0  0  0  0  0  0  0  0  0  0  0  0
   -4.9568    3.8174   -0.0000 C   0  0  0  0  0  0  0  0  0  0  0  0
   -8.8095    1.5857   -0.0000 C   0  0  0  0  0  0  0  0  0  0  0  0
   -8.8212    3.0892   -0.0000 N   0  0  0  0  0  0  0  0  0  0  0  0
   -4.9685    5.3209   -0.0000 C   0  0  0  0  0  0  0  0  0  0  0  0
   -3.6882    6.0727   -0.0000 C   0  0  0  0  0  0  0  0  0  0  0  0
   -6.2723    6.0844   -0.0000 C   0  0  0  0  0  0  0  0  0  0  0  0
  1  2  1  0
  1  3  2  0
  2  4  1  0
  3  5  1  0
  4  6  2  0
  5  7  2  0
  6  8  1  0
  7  9  1  0
  9 10  1  0
 10 11  1  0
 10 12  1  0
 11 13  1  0
 11 14  1  0
 12 15  1  0
 13 16  1  0
 14 17  1  0
 17 18  1  0
 17 19  1  0
  4  5  1  0
  8  9  2  0
 15 16  1  0
M  END
>  <MolRegNo>  (1) 
648321

>  <m>  (1) 
=

>  <Value>  (1) 
310

>  <Unit>  (1) 
nM

>  <Type>  (1) 
IC50

>  <pValue>  (1) 
6.51

>  <Ligand Efficiency>  (1) 
0

>  <Binding Efficiency>  (1) 
0

>  <Surface Efficiency>  (1) 
0

>  <Assay Index>  (1) 
485181

>  <Assay Category>  (1) 


>  <Assay Organism>  (1) 


>  <Target ID>  (1) 
11365

>  <Target Name>  (1) 
Cytochrome P450 2D6

>  <Target Organism>  (1) 
Homo sapiens

>  <Target Description>  (1) 
Target is a single protein chain

>  <Sequence Accession>  (1) 
P10635

>  <Reference>  (1) 
Bioorg Med Chem Lett 20 (13), 3941-3945 (2010)

>  <Pubmed ID>  (1) 
20570146

>  <DOI>  (1) 
10.1016/j.bmcl.2010.05.008

$$$$
