4wnv_ligand_745
     RDKit          2D

 22 24  0  0  0  0  0  0  0  0999 V2000
    0.0000   -0.0000   -0.0000 O   0  0  0  0  0  0  0  0  0  0  0  0
    1.4520    0.3214   -0.0000 C   0  0  0  0  0  0  0  0  0  0  0  0
   -0.4761   -1.4163   -0.0000 C   0  0  0  0  0  0  0  0  0  0  0  0
    1.8924    1.7496   -0.0000 C   0  0  0  0  0  0  0  0  0  0  0  0
    2.4280   -0.7855   -0.0000 C   0  0  0  0  0  0  0  0  0  0  0  0
   -1.9281   -1.8686   -0.0000 C   0  0  0  0  0  0  0  0  0  0  0  0
    0.4047   -2.6303   -0.0000 C   0  0  0  0  0  0  0  0  0  0  0  0
    3.3444    2.0828   -0.0000 C   0  0  0  0  0  0  0  0  0  0  0  0
    0.8688    2.8684   -0.0000 C   0  0  0  0  0  0  0  0  0  0  0  0
    3.8800   -0.4642   -0.0000 C   0  0  0  0  0  0  0  0  0  0  0  0
   -1.9400   -3.3682   -0.0000 C   0  0  0  0  0  0  0  0  0  0  0  0
   -3.2373   -1.1069   -0.0000 C   0  0  0  0  0  0  0  0  0  0  0  0
    1.4520   -1.5472   -0.0000 O   0  0  0  0  0  0  0  0  0  0  0  0
   -0.4999   -3.8443   -0.0000 C   0  0  0  0  0  0  0  0  0  0  0  0
    1.6901   -3.3682   -0.0000 C   0  0  0  0  0  0  0  0  0  0  0  0
    4.3442    0.9760   -0.0000 C   0  0  0  0  0  0  0  0  0  0  0  0
    1.3092    4.3085   -0.0000 C   0  0  0  0  0  0  0  0  0  0  0  0
   -3.2492   -4.1061   -0.0000 C   0  0  0  0  0  0  0  0  0  0  0  0
   -4.5465   -1.8448   -0.0000 C   0  0  0  0  0  0  0  0  0  0  0  0
    1.6782   -4.8560   -0.0000 N   0  0  0  0  0  0  0  0  0  0  0  0
   -4.5584   -3.3444   -0.0000 C   0  0  0  0  0  0  0  0  0  0  0  0
    2.9636   -5.5939   -0.0000 C   0  0  0  0  0  0  0  0  0  0  0  0
  1  2  1  0
  3  1  1  6
  2  4  2  0
  2  5  1  0
  3  6  1  0
  3  7  1  0
  4  8  1  0
  4  9  1  0
  5 10  2  0
  6 11  2  0
  6 12  1  0
  7 13  1  1
  7 14  1  0
  7 15  1  0
  8 16  2  0
  9 17  1  0
 11 18  1  0
 12 19  2  0
 15 20  1  0
 18 21  2  0
 20 22  1  0
 10 16  1  0
 11 14  1  0
 19 21  1  0
M  END
>  <MolRegNo>  (1) 
452289

>  <m>  (1) 
=

>  <Value>  (1) 
800

>  <Unit>  (1) 
nM

>  <Type>  (1) 
IC50

>  <pValue>  (1) 
6.1

>  <Ligand Efficiency>  (1) 
0

>  <Binding Efficiency>  (1) 
0

>  <Surface Efficiency>  (1) 
0

>  <Assay Index>  (1) 
407281

>  <Assay Category>  (1) 


>  <Assay Organism>  (1) 


>  <Target ID>  (1) 
11365

>  <Target Name>  (1) 
Cytochrome P450 2D6

>  <Target Organism>  (1) 
Homo sapiens

>  <Target Description>  (1) 
Target is a single protein chain

>  <Sequence Accession>  (1) 
P10635

>  <Reference>  (1) 
Bioorg Med Chem Lett 18 (23), 6151-6155 (2008)

>  <Pubmed ID>  (1) 
18954981

>  <DOI>  (1) 
10.1016/j.bmcl.2008.10.013

$$$$
