4wnv_ligand_856
     RDKit          2D

 28 30  0  0  0  0  0  0  0  0999 V2000
    0.0000   -0.0000   -0.0000 F   0  0  0  0  0  0  0  0  0  0  0  0
   -1.0842    0.6335   -0.0000 C   0  0  0  0  0  0  0  0  0  0  0  0
   -1.0964    2.1928   -0.0000 C   0  0  0  0  0  0  0  0  0  0  0  0
   -2.4364   -0.1218   -0.0000 C   0  0  0  0  0  0  0  0  0  0  0  0
   -0.0365    2.8262   -0.0000 F   0  0  0  0  0  0  0  0  0  0  0  0
   -2.4486    2.9724   -0.0000 C   0  0  0  0  0  0  0  0  0  0  0  0
   -3.7886    0.6578   -0.0000 C   0  0  0  0  0  0  0  0  0  0  0  0
   -3.8008    2.2171   -0.0000 C   0  0  0  0  0  0  0  0  0  0  0  0
   -4.8728    0.0487   -0.0000 F   0  0  0  0  0  0  0  0  0  0  0  0
   -5.1530    3.0090   -0.0000 C   0  0  0  0  0  0  0  0  0  0  0  0
   -5.1652    4.5683   -0.0000 C   0  0  0  0  0  0  0  0  0  0  0  0
   -4.1053    5.2017   -0.0000 N   0  0  0  0  0  0  0  0  0  0  0  0
   -6.5174    5.3601   -0.0000 C   0  0  0  0  0  0  0  0  0  0  0  0
   -6.5296    6.9194   -0.0000 C   0  0  0  0  0  0  0  0  0  0  0  0
   -5.4697    7.5529   -0.0000 O   0  0  0  0  0  0  0  0  0  0  0  0
   -7.8818    7.7112   -0.0000 N   0  0  0  0  0  0  0  0  0  0  0  0
   -8.0401    9.2462   -0.0000 C   0  0  0  0  0  0  0  0  0  0  0  0
   -9.2827    7.0778   -0.0000 C   0  0  0  0  0  0  0  0  0  0  0  0
   -9.5629    9.5751   -0.0000 C   0  0  0  0  0  0  0  0  0  0  0  0
   -6.8950   10.2816   -0.0000 C   0  0  0  0  0  0  0  0  0  0  0  0
  -10.3304    8.2351   -0.0000 C   0  0  0  0  0  0  0  0  0  0  0  0
   -7.2239   11.8044   -0.0000 N   0  0  0  0  0  0  0  0  0  0  0  0
   -6.0788   12.8399   -0.0000 C   0  0  0  0  0  0  0  0  0  0  0  0
   -6.3956   14.3626   -0.0000 N   0  0  0  0  0  0  0  0  0  0  0  0
   -4.6292   12.3648   -0.0000 N   0  0  0  0  0  0  0  0  0  0  0  0
   -5.2505   15.3981   -0.0000 C   0  0  0  0  0  0  0  0  0  0  0  0
   -3.4841   13.4002   -0.0000 C   0  0  0  0  0  0  0  0  0  0  0  0
   -3.8008   14.9230   -0.0000 C   0  0  0  0  0  0  0  0  0  0  0  0
  1  2  1  0
  2  3  2  0
  2  4  1  0
  3  5  1  0
  3  6  1  0
  4  7  2  0
  6  8  2  0
  7  9  1  0
  8 10  1  0
 10 11  1  0
 11 12  1  1
 11 13  1  0
 13 14  1  0
 14 15  2  0
 14 16  1  0
 16 17  1  0
 16 18  1  0
 17 19  1  0
 17 20  1  6
 18 21  1  0
 20 22  1  0
 22 23  1  0
 23 24  2  0
 23 25  1  0
 24 26  1  0
 25 27  2  0
 26 28  2  0
  7  8  1  0
 19 21  1  0
 27 28  1  0
M  END
>  <MolRegNo>  (1) 
555432

>  <m>  (1) 
=

>  <Value>  (1) 
2200

>  <Unit>  (1) 
nM

>  <Type>  (1) 
IC50

>  <pValue>  (1) 
5.66

>  <Ligand Efficiency>  (1) 
0

>  <Binding Efficiency>  (1) 
0

>  <Surface Efficiency>  (1) 
0

>  <Assay Index>  (1) 
428036

>  <Assay Category>  (1) 


>  <Assay Organism>  (1) 
Homo sapiens

>  <Target ID>  (1) 
11365

>  <Target Name>  (1) 
Cytochrome P450 2D6

>  <Target Organism>  (1) 
Homo sapiens

>  <Target Description>  (1) 
Target is a single protein chain

>  <Sequence Accession>  (1) 
P10635

>  <Reference>  (1) 
Bioorg Med Chem Lett 19 (16), 4818-4823 (2009)

>  <Pubmed ID>  (1) 
19576767

>  <DOI>  (1) 
10.1016/j.bmcl.2009.06.036

$$$$
