4wnv_ligand_405
     RDKit          2D

 21 23  0  0  0  0  0  0  0  0999 V2000
    0.0000   -0.0000   -0.0000 O   0  0  0  0  0  0  0  0  0  0  0  0
   -0.0119   -1.4981   -0.0000 C   0  0  0  0  0  0  0  0  0  0  0  0
    1.2960    0.7728   -0.0000 C   0  0  0  0  0  0  0  0  0  0  0  0
    1.2841   -2.2352   -0.0000 C   0  0  0  0  0  0  0  0  0  0  0  0
    2.5919    0.0238   -0.0000 C   0  0  0  0  0  0  0  0  0  0  0  0
    2.5800   -1.4743   -0.0000 C   0  0  0  0  0  0  0  0  0  0  0  0
    3.8760   -2.2234   -0.0000 N   0  0  0  0  0  0  0  0  0  0  0  0
    5.1720   -1.4505   -0.0000 C   0  0  0  0  0  0  0  0  0  0  0  0
    3.8641   -3.7215   -0.0000 C   0  0  0  0  0  0  0  0  0  0  0  0
    5.3147    0.0594   -0.0000 C   0  0  0  0  0  0  0  0  0  0  0  0
    6.5274   -2.0569   -0.0000 C   0  0  0  0  0  0  0  0  0  0  0  0
    5.1601   -4.4586   -0.0000 C   0  0  0  0  0  0  0  0  0  0  0  0
    6.7771    0.3805   -0.0000 N   0  0  0  0  0  0  0  0  0  0  0  0
    7.5261   -0.9274   -0.0000 C   0  0  0  0  0  0  0  0  0  0  0  0
    5.1363   -5.9567   -0.0000 C   0  0  0  0  0  0  0  0  0  0  0  0
    6.4442   -3.6977   -0.0000 C   0  0  0  0  0  0  0  0  0  0  0  0
    6.4323   -6.7057   -0.0000 C   0  0  0  0  0  0  0  0  0  0  0  0
    3.8166   -6.6939   -0.0000 C   0  0  0  0  0  0  0  0  0  0  0  0
    7.7401   -4.4348   -0.0000 C   0  0  0  0  0  0  0  0  0  0  0  0
    7.7283   -5.9329   -0.0000 C   0  0  0  0  0  0  0  0  0  0  0  0
    6.4204   -8.2038   -0.0000 C   0  0  0  0  0  0  0  0  0  0  0  0
  1  2  1  0
  1  3  1  0
  2  4  1  0
  3  5  1  0
  4  6  1  0
  6  7  1  0
  8  7  1  6
  7  9  1  0
  8 10  1  0
  8 11  1  0
  9 12  1  0
 10 13  1  0
 11 14  1  0
 12 15  2  0
 12 16  1  0
 15 17  1  0
 15 18  1  0
 16 19  2  0
 17 20  2  0
 17 21  1  0
  5  6  1  0
 13 14  1  0
 19 20  1  0
M  END
>  <MolRegNo>  (1) 
412779

>  <m>  (1) 
=

>  <Value>  (1) 
5900

>  <Unit>  (1) 
nM

>  <Type>  (1) 
IC50

>  <pValue>  (1) 
5.23

>  <Ligand Efficiency>  (1) 
0

>  <Binding Efficiency>  (1) 
0

>  <Surface Efficiency>  (1) 
0

>  <Assay Index>  (1) 
303145

>  <Assay Category>  (1) 


>  <Assay Organism>  (1) 
Homo sapiens

>  <Target ID>  (1) 
11365

>  <Target Name>  (1) 
Cytochrome P450 2D6

>  <Target Organism>  (1) 
Homo sapiens

>  <Target Description>  (1) 
Target is a single protein chain

>  <Sequence Accession>  (1) 
P10635

>  <Reference>  (1) 
Bioorg Med Chem Lett 17 (7), 2022-2025 (2007)

>  <Pubmed ID>  (1) 
17267217

>  <DOI>  (1) 
10.1016/j.bmcl.2007.01.020

$$$$
