4wnv_ligand_1057
     RDKit          2D

 39 44  0  0  0  0  0  0  0  0999 V2000
    0.0000   -0.0000   -0.0000 Cl  0  0  0  0  0  0  0  0  0  0  0  0
    0.5968   -1.3727   -0.0000 C   0  0  0  0  0  0  0  0  0  0  0  0
    2.0890   -1.5279   -0.0000 C   0  0  0  0  0  0  0  0  0  0  0  0
   -0.3104   -2.5784   -0.0000 C   0  0  0  0  0  0  0  0  0  0  0  0
    2.6739   -2.9007   -0.0000 C   0  0  0  0  0  0  0  0  0  0  0  0
    0.2865   -3.9392   -0.0000 C   0  0  0  0  0  0  0  0  0  0  0  0
    1.7667   -4.1063   -0.0000 C   0  0  0  0  0  0  0  0  0  0  0  0
    2.3635   -5.4790   -0.0000 C   0  0  0  0  0  0  0  0  0  0  0  0
    3.8556   -5.6342   -0.0000 N   0  0  0  0  0  0  0  0  0  0  0  0
    4.8583   -4.5121   -0.0000 C   0  0  0  0  0  0  0  0  0  0  0  0
    4.5957   -6.9353   -0.0000 C   0  0  0  0  0  0  0  0  0  0  0  0
    4.5480   -3.0200   -0.0000 O   0  0  0  0  0  0  0  0  0  0  0  0
    6.2191   -5.1209   -0.0000 N   0  0  0  0  0  0  0  0  0  0  0  0
    6.0520   -6.6130   -0.0000 C   0  0  0  0  0  0  0  0  0  0  0  0
    4.1182   -8.3439   -0.0000 C   0  0  0  0  0  0  0  0  0  0  0  0
    7.5202   -4.3689   -0.0000 C   0  0  0  0  0  0  0  0  0  0  0  0
    7.0428   -7.7112   -0.0000 C   0  0  0  0  0  0  0  0  0  0  0  0
    5.1090   -9.4540   -0.0000 C   0  0  0  0  0  0  0  0  0  0  0  0
    7.5202   -2.8529   -0.0000 C   0  0  0  0  0  0  0  0  0  0  0  0
    8.8094   -5.1209   -0.0000 C   0  0  0  0  0  0  0  0  0  0  0  0
    6.5653   -9.1198   -0.0000 C   0  0  0  0  0  0  0  0  0  0  0  0
    8.8094   -2.1009   -0.0000 C   0  0  0  0  0  0  0  0  0  0  0  0
   10.1106   -4.3689   -0.0000 C   0  0  0  0  0  0  0  0  0  0  0  0
   10.1106   -2.8529   -0.0000 N   0  0  0  0  0  0  0  0  0  0  0  0
   11.4117   -2.0890   -0.0000 C   0  0  0  0  0  0  0  0  0  0  0  0
   11.4117   -0.5730   -0.0000 O   0  0  0  0  0  0  0  0  0  0  0  0
   12.7009   -2.8410   -0.0000 C   0  0  0  0  0  0  0  0  0  0  0  0
   14.0020   -2.0770   -0.0000 C   0  0  0  0  0  0  0  0  0  0  0  0
   12.6889   -4.3450   -0.0000 C   0  0  0  0  0  0  0  0  0  0  0  0
   15.2912   -2.8171   -0.0000 C   0  0  0  0  0  0  0  0  0  0  0  0
   13.9781   -5.0971   -0.0000 C   0  0  0  0  0  0  0  0  0  0  0  0
   15.2673   -4.3212   -0.0000 N   0  0  0  0  0  0  0  0  0  0  0  0
   16.5565   -5.0612   -0.0000 C   0  0  0  0  0  0  0  0  0  0  0  0
   17.8457   -4.2973   -0.0000 C   0  0  0  0  0  0  0  0  0  0  0  0
   17.8337   -2.7694   -0.0000 C   0  0  0  0  0  0  0  0  0  0  0  0
   19.1349   -5.0374   -0.0000 C   0  0  0  0  0  0  0  0  0  0  0  0
   19.1229   -2.0054   -0.0000 C   0  0  0  0  0  0  0  0  0  0  0  0
   20.4360   -4.2734   -0.0000 C   0  0  0  0  0  0  0  0  0  0  0  0
   20.4240   -2.7455   -0.0000 N   0  0  0  0  0  0  0  0  0  0  0  0
  1  2  1  0
  2  3  2  0
  2  4  1  0
  3  5  1  0
  4  6  2  0
  5  7  2  0
  7  8  1  0
  8  9  1  0
  9 10  1  0
  9 11  1  0
 10 12  2  0
 10 13  1  0
 11 14  2  0
 11 15  1  0
 13 16  1  0
 14 17  1  0
 15 18  2  0
 16 19  1  0
 16 20  1  0
 17 21  2  0
 19 22  1  0
 20 23  1  0
 22 24  1  0
 24 25  1  0
 25 26  2  0
 25 27  1  0
 27 28  1  0
 27 29  1  0
 28 30  1  0
 29 31  1  0
 30 32  1  0
 32 33  1  0
 33 34  1  0
 34 35  2  0
 34 36  1  0
 35 37  1  0
 36 38  2  0
 37 39  2  0
  6  7  1  0
 13 14  1  0
 18 21  1  0
 23 24  1  0
 31 32  1  0
 38 39  1  0
M  END
>  <MolRegNo>  (1) 
689443

>  <m>  (1) 
=

>  <Value>  (1) 
5800

>  <Unit>  (1) 
nM

>  <Type>  (1) 
IC50

>  <pValue>  (1) 
5.24

>  <Ligand Efficiency>  (1) 
0

>  <Binding Efficiency>  (1) 
0

>  <Surface Efficiency>  (1) 
0

>  <Assay Index>  (1) 
497181

>  <Assay Category>  (1) 


>  <Assay Organism>  (1) 
Homo sapiens

>  <Target ID>  (1) 
11365

>  <Target Name>  (1) 
Cytochrome P450 2D6

>  <Target Organism>  (1) 
Homo sapiens

>  <Target Description>  (1) 
Target is a single protein chain

>  <Sequence Accession>  (1) 
P10635

>  <Reference>  (1) 
Bioorg Med Chem Lett 20 (17), 5004-5008 (2010)

>  <Pubmed ID>  (1) 
20685118

>  <DOI>  (1) 
10.1016/j.bmcl.2010.07.052

$$$$
