4wnv_ligand_840
     RDKit          2D

 30 31  0  0  0  0  0  0  0  0999 V2000
    0.0000   -0.0000   -0.0000 S   0  0  0  0  0  0  0  0  0  0  0  0
    1.2136   -0.3960   -0.0000 O   0  0  0  0  0  0  0  0  0  0  0  0
    0.2555   -1.2520   -0.0000 O   0  0  0  0  0  0  0  0  0  0  0  0
   -1.2264   -1.0603   -0.0000 N   0  0  0  0  0  0  0  0  0  0  0  0
   -0.3449    1.5969   -0.0000 C   0  0  0  0  0  0  0  0  0  0  0  0
   -0.9070   -2.6317   -0.0000 C   0  0  0  0  0  0  0  0  0  0  0  0
   -2.4656   -0.6388   -0.0000 C   0  0  0  0  0  0  0  0  0  0  0  0
    0.6132    2.4784   -0.0000 F   0  0  0  0  0  0  0  0  0  0  0  0
   -1.5841    2.0185   -0.0000 F   0  0  0  0  0  0  0  0  0  0  0  0
   -0.6260    2.8744   -0.0000 F   0  0  0  0  0  0  0  0  0  0  0  0
   -2.1334   -3.6920   -0.0000 C   0  0  0  0  0  0  0  0  0  0  0  0
   -1.9929   -5.2761   -0.0000 N   0  0  0  0  0  0  0  0  0  0  0  0
   -3.7303   -3.3471   -0.0000 C   0  0  0  0  0  0  0  0  0  0  0  0
   -0.6004   -6.0809   -0.0000 C   0  0  0  0  0  0  0  0  0  0  0  0
   -3.4621   -5.9404   -0.0000 C   0  0  0  0  0  0  0  0  0  0  0  0
   -4.5479   -4.7396   -0.0000 C   0  0  0  0  0  0  0  0  0  0  0  0
    0.5110   -5.4166   -0.0000 O   0  0  0  0  0  0  0  0  0  0  0  0
   -0.6132   -7.6906   -0.0000 C   0  0  0  0  0  0  0  0  0  0  0  0
    0.7793   -8.4954   -0.0000 C   0  0  0  0  0  0  0  0  0  0  0  0
    1.8907   -7.8311   -0.0000 N   0  0  0  0  0  0  0  0  0  0  0  0
    0.7665  -10.1051   -0.0000 C   0  0  0  0  0  0  0  0  0  0  0  0
    2.1590  -10.9099   -0.0000 C   0  0  0  0  0  0  0  0  0  0  0  0
    2.1462  -12.5196   -0.0000 C   0  0  0  0  0  0  0  0  0  0  0  0
    3.5515  -10.0923   -0.0000 C   0  0  0  0  0  0  0  0  0  0  0  0
    1.0092  -13.1584   -0.0000 F   0  0  0  0  0  0  0  0  0  0  0  0
    3.5387  -13.3117   -0.0000 C   0  0  0  0  0  0  0  0  0  0  0  0
    4.9440  -10.8844   -0.0000 C   0  0  0  0  0  0  0  0  0  0  0  0
    4.9312  -12.4940   -0.0000 C   0  0  0  0  0  0  0  0  0  0  0  0
    6.0554  -10.2201   -0.0000 F   0  0  0  0  0  0  0  0  0  0  0  0
    6.0426  -13.1328   -0.0000 F   0  0  0  0  0  0  0  0  0  0  0  0
  1  2  2  0
  1  3  2  0
  1  4  1  0
  1  5  1  0
  4  6  1  0
  4  7  1  0
  5  8  1  0
  5  9  1  0
  5 10  1  0
 11  6  1  6
 11 12  1  0
 11 13  1  0
 12 14  1  0
 12 15  1  0
 13 16  1  0
 14 17  2  0
 14 18  1  0
 18 19  1  0
 19 20  1  1
 19 21  1  0
 21 22  1  0
 22 23  2  0
 22 24  1  0
 23 25  1  0
 23 26  1  0
 24 27  2  0
 26 28  2  0
 27 29  1  0
 28 30  1  0
 15 16  1  0
 27 28  1  0
M  END
>  <MolRegNo>  (1) 
566028

>  <m>  (1) 
=

>  <Value>  (1) 
1300

>  <Unit>  (1) 
nM

>  <Type>  (1) 
IC50

>  <pValue>  (1) 
5.89

>  <Ligand Efficiency>  (1) 
0

>  <Binding Efficiency>  (1) 
0

>  <Surface Efficiency>  (1) 
0

>  <Assay Index>  (1) 
428036

>  <Assay Category>  (1) 


>  <Assay Organism>  (1) 
Homo sapiens

>  <Target ID>  (1) 
11365

>  <Target Name>  (1) 
Cytochrome P450 2D6

>  <Target Organism>  (1) 
Homo sapiens

>  <Target Description>  (1) 
Target is a single protein chain

>  <Sequence Accession>  (1) 
P10635

>  <Reference>  (1) 
Bioorg Med Chem Lett 19 (16), 4818-4823 (2009)

>  <Pubmed ID>  (1) 
19576767

>  <DOI>  (1) 
10.1016/j.bmcl.2009.06.036

$$$$
