4wnv_ligand_465
     RDKit          2D

 41 44  0  0  1  0  0  0  0  0999 V2000
    0.0000   -0.0000   -0.0000 S   0  0  0  0  0  0  0  0  0  0  0  0
    1.2041    0.8942   -0.0000 C   0  0  0  0  0  0  0  0  0  0  0  0
    0.4530   -1.4187   -0.0000 C   0  0  0  0  0  0  0  0  0  0  0  0
    2.4083    0.0238   -0.0000 N   0  0  0  0  0  0  0  0  0  0  0  0
    1.1922    2.4083   -0.0000 N   0  0  0  0  0  0  0  0  0  0  0  0
    1.9433   -1.4068   -0.0000 C   0  0  0  0  0  0  0  0  0  0  0  0
   -0.3338   -2.6825   -0.0000 C   0  0  0  0  0  0  0  0  0  0  0  0
   -0.1192    3.1832   -0.0000 C   0  0  0  0  0  0  0  0  0  0  0  0
    2.8136   -2.5990   -0.0000 C   0  0  0  0  0  0  0  0  0  0  0  0
   -1.8479   -2.6467   -0.0000 O   0  0  0  0  0  0  0  0  0  0  0  0
    0.3815   -3.9820   -0.0000 C   0  0  0  0  0  0  0  0  0  0  0  0
   -1.4307    2.4440   -0.0000 O   0  0  0  0  0  0  0  0  0  0  0  0
   -0.1311    4.6973   -0.0000 N   0  0  0  0  0  0  0  0  0  0  0  0
   -1.4426    5.4603   -0.0000 C   0  0  0  0  0  0  0  0  0  0  0  0
   -1.4545    6.9744   -0.0000 C   0  0  0  0  0  0  0  0  0  0  0  0
   -2.7540    4.7331   -0.0000 C   0  0  0  0  0  0  0  0  0  0  0  0
   -2.7659    7.7494   -0.0000 C   0  0  0  0  0  0  0  0  0  0  0  0
   -0.1550    7.7375   -0.0000 C   0  0  0  0  0  0  0  0  0  0  0  0
   -4.0654    5.4842   -0.0000 C   0  0  0  0  0  0  0  0  0  0  0  0
   -4.0774    6.9983   -0.0000 N   0  0  0  0  0  0  0  0  0  0  0  0
    1.1326    6.9864   -0.0000 N   0  0  0  0  0  0  0  0  0  0  0  0
   -5.3888    7.7494   -0.0000 C   0  0  0  0  0  0  0  0  0  0  0  0
    2.4202    7.7494   -0.0000 C   0  0  0  0  0  0  0  0  0  0  0  0
    1.1207    5.4842   -0.0000 C   0  0  0  0  0  0  0  0  0  0  0  0
   -5.4007    9.2635   -0.0000 O   0  0  0  0  0  0  0  0  0  0  0  0
   -6.6764    7.0102   -0.0000 O   0  0  0  0  0  0  0  0  0  0  0  0
    3.7078    6.9983   -0.0000 C   0  0  0  0  0  0  0  0  0  0  0  0
    2.4083    4.7450   -0.0000 C   0  0  0  0  0  0  0  0  0  0  0  0
   -7.9878    7.7613   -0.0000 C   0  0  0  0  0  0  0  0  0  0  0  0
    3.6839    5.5080   -0.0000 C   0  0  0  0  0  0  0  0  0  0  0  0
    5.0073    7.7613   -0.0000 C   0  0  0  0  0  0  0  0  0  0  0  0
   -9.2992    8.5243   -0.0000 C   0  0  0  0  0  0  0  0  0  0  0  0
   -8.7389    6.4737   -0.0000 C   0  0  0  0  0  0  0  0  0  0  0  0
   -7.2486    9.0727   -0.0000 C   0  0  0  0  0  0  0  0  0  0  0  0
    6.2949    7.0102   -0.0000 C   0  0  0  0  0  0  0  0  0  0  0  0
    6.2591    5.5199   -0.0000 C   0  0  0  0  0  0  0  0  0  0  0  0
    7.5825    7.7732   -0.0000 C   0  0  0  0  0  0  0  0  0  0  0  0
    7.5467    4.7808   -0.0000 C   0  0  0  0  0  0  0  0  0  0  0  0
    8.8701    7.0221   -0.0000 C   0  0  0  0  0  0  0  0  0  0  0  0
    8.8462    5.5319   -0.0000 C   0  0  0  0  0  0  0  0  0  0  0  0
   10.1338    4.7927   -0.0000 F   0  0  0  0  0  0  0  0  0  0  0  0
  1  2  1  0
  1  3  1  0
  2  4  2  0
  2  5  1  0
  3  6  2  0
  3  7  1  0
  5  8  1  0
  6  9  1  0
  7 10  2  0
  7 11  1  0
  8 12  2  0
  8 13  1  0
 14 13  1  6
 14 15  1  0
 14 16  1  0
 15 17  1  0
 15 18  1  1
 16 19  1  0
 17 20  1  0
 18 21  1  0
 20 22  1  0
 21 23  1  0
 21 24  1  0
 22 25  2  0
 22 26  1  0
 23 27  1  0
 24 28  1  0
 26 29  1  0
 27 30  1  0
 27 31  1  6
 29 32  1  0
 29 33  1  0
 29 34  1  0
 31 35  1  0
 35 36  2  0
 35 37  1  0
 36 38  1  0
 37 39  2  0
 38 40  2  0
 40 41  1  0
  4  6  1  0
 19 20  1  0
 28 30  1  0
 39 40  1  0
M  END
>  <MolRegNo>  (1) 
421464

>  <m>  (1) 
=

>  <Value>  (1) 
570

>  <Unit>  (1) 
nM

>  <Type>  (1) 
IC50

>  <pValue>  (1) 
6.24

>  <Ligand Efficiency>  (1) 
0

>  <Binding Efficiency>  (1) 
0

>  <Surface Efficiency>  (1) 
0

>  <Assay Index>  (1) 
307824

>  <Assay Category>  (1) 


>  <Assay Organism>  (1) 
Homo sapiens

>  <Target ID>  (1) 
11365

>  <Target Name>  (1) 
Cytochrome P450 2D6

>  <Target Organism>  (1) 
Homo sapiens

>  <Target Description>  (1) 
Target is a single protein chain

>  <Sequence Accession>  (1) 
P10635

>  <Reference>  (1) 
Bioorg Med Chem Lett 17 (11), 2992-2997 (2007)

>  <Pubmed ID>  (1) 
17418570

>  <DOI>  (1) 
10.1016/j.bmcl.2007.03.065

$$$$
