4wnv_ligand_988
     RDKit          2D

 22 24  0  0  0  0  0  0  0  0999 V2000
    0.0000   -0.0000   -0.0000 N   0  0  0  0  0  0  0  0  0  0  0  0
   -1.2778   -0.7809   -0.0000 C   0  0  0  0  0  0  0  0  0  0  0  0
    1.3133   -0.6862   -0.0000 C   0  0  0  0  0  0  0  0  0  0  0  0
   -1.2423   -2.2598   -0.0000 C   0  0  0  0  0  0  0  0  0  0  0  0
   -2.6147   -0.0828   -0.0000 C   0  0  0  0  0  0  0  0  0  0  0  0
    1.3606   -2.1769   -0.0000 C   0  0  0  0  0  0  0  0  0  0  0  0
    0.0710   -2.9460   -0.0000 N   0  0  0  0  0  0  0  0  0  0  0  0
   -2.6384    1.4197   -0.0000 C   0  0  0  0  0  0  0  0  0  0  0  0
   -3.8806    2.3071   -0.0000 C   0  0  0  0  0  0  0  0  0  0  0  0
   -1.4316    2.3307   -0.0000 C   0  0  0  0  0  0  0  0  0  0  0  0
   -3.4310    3.7505   -0.0000 C   0  0  0  0  0  0  0  0  0  0  0  0
   -5.3477    1.9995   -0.0000 C   0  0  0  0  0  0  0  0  0  0  0  0
   -1.9167    3.7742   -0.0000 C   0  0  0  0  0  0  0  0  0  0  0  0
   -0.0118    1.8930   -0.0000 C   0  0  0  0  0  0  0  0  0  0  0  0
   -4.4485    4.8626   -0.0000 C   0  0  0  0  0  0  0  0  0  0  0  0
   -6.3652    3.1234   -0.0000 C   0  0  0  0  0  0  0  0  0  0  0  0
    1.0766    2.9105   -0.0000 C   0  0  0  0  0  0  0  0  0  0  0  0
   -5.9156    4.5550   -0.0000 C   0  0  0  0  0  0  0  0  0  0  0  0
    2.4964    2.4727   -0.0000 N   0  0  0  0  0  0  0  0  0  0  0  0
   -6.9331    5.6671   -0.0000 C   0  0  0  0  0  0  0  0  0  0  0  0
    3.5849    3.4902   -0.0000 C   0  0  0  0  0  0  0  0  0  0  0  0
    2.8040    1.0175   -0.0000 C   0  0  0  0  0  0  0  0  0  0  0  0
  1  2  2  0
  1  3  1  0
  2  4  1  0
  2  5  1  0
  3  6  2  0
  4  7  2  0
  5  8  1  0
  8  9  1  0
  8 10  2  0
  9 11  2  0
  9 12  1  0
 10 13  1  0
 10 14  1  0
 11 15  1  0
 12 16  2  0
 14 17  1  0
 15 18  2  0
 17 19  1  0
 18 20  1  0
 19 21  1  0
 19 22  1  0
  6  7  1  0
 11 13  1  0
 16 18  1  0
M  END
>  <MolRegNo>  (1) 
621022

>  <m>  (1) 
=

>  <Value>  (1) 
6600

>  <Unit>  (1) 
nM

>  <Type>  (1) 
IC50

>  <pValue>  (1) 
5.18

>  <Ligand Efficiency>  (1) 
0

>  <Binding Efficiency>  (1) 
0

>  <Surface Efficiency>  (1) 
0

>  <Assay Index>  (1) 
470598

>  <Assay Category>  (1) 


>  <Assay Organism>  (1) 


>  <Target ID>  (1) 
11365

>  <Target Name>  (1) 
Cytochrome P450 2D6

>  <Target Organism>  (1) 
Homo sapiens

>  <Target Description>  (1) 
Target is a single protein chain

>  <Sequence Accession>  (1) 
P10635

>  <Reference>  (1) 
Bioorg Med Chem Lett 20 (8), 2629-2633 (2010)

>  <Pubmed ID>  (1) 
20227880

>  <DOI>  (1) 
10.1016/j.bmcl.2010.02.055

$$$$
