4wnv_ligand_725
     RDKit          2D

 28 31  0  0  0  0  0  0  0  0999 V2000
    0.0000   -0.0000   -0.0000 Cl  0  0  0  0  0  0  0  0  0  0  0  0
   -0.0119    1.5112   -0.0000 C   0  0  0  0  0  0  0  0  0  0  0  0
    1.2851    2.2728   -0.0000 C   0  0  0  0  0  0  0  0  0  0  0  0
   -1.3208    2.2728   -0.0000 C   0  0  0  0  0  0  0  0  0  0  0  0
    2.5703    1.5350   -0.0000 N   0  0  0  0  0  0  0  0  0  0  0  0
    1.2732    3.7959   -0.0000 C   0  0  0  0  0  0  0  0  0  0  0  0
   -1.3327    3.7840   -0.0000 C   0  0  0  0  0  0  0  0  0  0  0  0
    3.8554    2.2966   -0.0000 C   0  0  0  0  0  0  0  0  0  0  0  0
   -0.0357    4.5575   -0.0000 C   0  0  0  0  0  0  0  0  0  0  0  0
   -2.6417    4.5456   -0.0000 Cl  0  0  0  0  0  0  0  0  0  0  0  0
    5.1406    1.5588   -0.0000 N   0  0  0  0  0  0  0  0  0  0  0  0
    3.8316    3.8078   -0.0000 C   0  0  0  0  0  0  0  0  0  0  0  0
    6.4257    2.3204   -0.0000 C   0  0  0  0  0  0  0  0  0  0  0  0
    5.1168    4.5813   -0.0000 C   0  0  0  0  0  0  0  0  0  0  0  0
    6.4138    3.8316   -0.0000 C   0  0  0  0  0  0  0  0  0  0  0  0
    5.0930    6.0925   -0.0000 C   0  0  0  0  0  0  0  0  0  0  0  0
    7.6990    4.5932   -0.0000 C   0  0  0  0  0  0  0  0  0  0  0  0
    5.8188    7.4015   -0.0000 C   0  0  0  0  0  0  0  0  0  0  0  0
    4.3195    7.4015   -0.0000 C   0  0  0  0  0  0  0  0  0  0  0  0
    7.6871    6.1044   -0.0000 O   0  0  0  0  0  0  0  0  0  0  0  0
    8.9841    3.8554   -0.0000 N   0  0  0  0  0  0  0  0  0  0  0  0
   10.2693    4.6170   -0.0000 C   0  0  0  0  0  0  0  0  0  0  0  0
   11.5544    3.8792   -0.0000 C   0  0  0  0  0  0  0  0  0  0  0  0
   11.5425    2.3918   -0.0000 C   0  0  0  0  0  0  0  0  0  0  0  0
   12.8276    4.6527   -0.0000 C   0  0  0  0  0  0  0  0  0  0  0  0
   12.8276    1.6540   -0.0000 C   0  0  0  0  0  0  0  0  0  0  0  0
   14.1128    3.9149   -0.0000 C   0  0  0  0  0  0  0  0  0  0  0  0
   14.1128    2.4156   -0.0000 O   0  0  0  0  0  0  0  0  0  0  0  0
  1  2  1  0
  2  3  2  0
  2  4  1  0
  3  5  1  0
  3  6  1  0
  4  7  2  0
  5  8  1  0
  6  9  2  0
  7 10  1  0
  8 11  2  0
  8 12  1  0
 11 13  1  0
 12 14  2  0
 13 15  2  0
 14 16  1  0
 15 17  1  0
 16 18  1  0
 16 19  1  0
 17 20  2  0
 17 21  1  0
 21 22  1  0
 22 23  1  0
 23 24  1  0
 23 25  1  0
 24 26  1  0
 25 27  1  0
 26 28  1  0
  7  9  1  0
 14 15  1  0
 18 19  1  0
 27 28  1  0
M  END
>  <MolRegNo>  (1) 
472870

>  <m>  (1) 
=

>  <Value>  (1) 
55000

>  <Unit>  (1) 
nM

>  <Type>  (1) 
IC50

>  <pValue>  (1) 
4.26

>  <Ligand Efficiency>  (1) 
0

>  <Binding Efficiency>  (1) 
0

>  <Surface Efficiency>  (1) 
0

>  <Assay Index>  (1) 
409031

>  <Assay Category>  (1) 


>  <Assay Organism>  (1) 


>  <Target ID>  (1) 
11365

>  <Target Name>  (1) 
Cytochrome P450 2D6

>  <Target Organism>  (1) 
Homo sapiens

>  <Target Description>  (1) 
Target is a single protein chain

>  <Sequence Accession>  (1) 
P10635

>  <Reference>  (1) 
Bioorg Med Chem Lett 19 (1), 259-263 (2009)

>  <Pubmed ID>  (1) 
19010671

>  <DOI>  (1) 
10.1016/j.bmcl.2008.10.118

$$$$
