4wnv_ligand_986
     RDKit          2D

 24 26  0  0  0  0  0  0  0  0999 V2000
    0.0000   -0.0000   -0.0000 O   0  0  0  0  0  0  0  0  0  0  0  0
   -0.0239   -1.4910   -0.0000 C   0  0  0  0  0  0  0  0  0  0  0  0
    1.3002    0.7515   -0.0000 C   0  0  0  0  0  0  0  0  0  0  0  0
   -1.3479   -2.2187   -0.0000 N   0  0  0  0  0  0  0  0  0  0  0  0
    1.2525   -2.2425   -0.0000 C   0  0  0  0  0  0  0  0  0  0  0  0
   -1.3718   -3.7097   -0.0000 C   0  0  0  0  0  0  0  0  0  0  0  0
    1.2405   -3.7335   -0.0000 N   0  0  0  0  0  0  0  0  0  0  0  0
    2.5526   -1.4910   -0.0000 C   0  0  0  0  0  0  0  0  0  0  0  0
   -0.0716   -4.4612   -0.0000 C   0  0  0  0  0  0  0  0  0  0  0  0
    3.9602   -1.9443   -0.0000 C   0  0  0  0  0  0  0  0  0  0  0  0
    2.3857    0.0119   -0.0000 C   0  0  0  0  0  0  0  0  0  0  0  0
    5.1769   -1.0378   -0.0000 C   0  0  0  0  0  0  0  0  0  0  0  0
    4.4135   -3.3757   -0.0000 C   0  0  0  0  0  0  0  0  0  0  0  0
    6.3936   -1.9205   -0.0000 C   0  0  0  0  0  0  0  0  0  0  0  0
    5.3200    0.4652   -0.0000 C   0  0  0  0  0  0  0  0  0  0  0  0
    5.9164   -3.3638   -0.0000 C   0  0  0  0  0  0  0  0  0  0  0  0
    3.5188   -4.5805   -0.0000 C   0  0  0  0  0  0  0  0  0  0  0  0
    7.7534   -1.2883   -0.0000 C   0  0  0  0  0  0  0  0  0  0  0  0
    6.6798    1.0855   -0.0000 C   0  0  0  0  0  0  0  0  0  0  0  0
    4.1153   -5.9403   -0.0000 C   0  0  0  0  0  0  0  0  0  0  0  0
    7.8965    0.2147   -0.0000 C   0  0  0  0  0  0  0  0  0  0  0  0
    3.2206   -7.1450   -0.0000 N   0  0  0  0  0  0  0  0  0  0  0  0
    3.8170   -8.5049   -0.0000 C   0  0  0  0  0  0  0  0  0  0  0  0
    1.7177   -6.9780   -0.0000 C   0  0  0  0  0  0  0  0  0  0  0  0
  1  2  1  0
  1  3  1  0
  2  4  2  0
  2  5  1  0
  4  6  1  0
  5  7  2  0
  5  8  1  0
  6  9  2  0
  8 10  1  0
  8 11  1  1
 10 12  1  0
 10 13  2  0
 12 14  2  0
 12 15  1  0
 13 16  1  0
 13 17  1  0
 14 18  1  0
 15 19  2  0
 17 20  1  0
 18 21  2  0
 20 22  1  0
 22 23  1  0
 22 24  1  0
  7  9  1  0
 14 16  1  0
 19 21  1  0
M  END
>  <MolRegNo>  (1) 
621019

>  <m>  (1) 
=

>  <Value>  (1) 
17000

>  <Unit>  (1) 
nM

>  <Type>  (1) 
IC50

>  <pValue>  (1) 
4.77

>  <Ligand Efficiency>  (1) 
0

>  <Binding Efficiency>  (1) 
0

>  <Surface Efficiency>  (1) 
0

>  <Assay Index>  (1) 
470598

>  <Assay Category>  (1) 


>  <Assay Organism>  (1) 


>  <Target ID>  (1) 
11365

>  <Target Name>  (1) 
Cytochrome P450 2D6

>  <Target Organism>  (1) 
Homo sapiens

>  <Target Description>  (1) 
Target is a single protein chain

>  <Sequence Accession>  (1) 
P10635

>  <Reference>  (1) 
Bioorg Med Chem Lett 20 (8), 2629-2633 (2010)

>  <Pubmed ID>  (1) 
20227880

>  <DOI>  (1) 
10.1016/j.bmcl.2010.02.055

$$$$
