4wnv_ligand_192
     RDKit          2D

 29 31  0  0  1  0  0  0  0  0999 V2000
    0.0000   -0.0000   -0.0000 O   0  0  0  0  0  0  0  0  0  0  0  0
   -0.0118   -1.4845   -0.0000 C   0  0  0  0  0  0  0  0  0  0  0  0
    1.2724   -2.2150   -0.0000 N   0  0  0  0  0  0  0  0  0  0  0  0
   -1.3196   -2.2150   -0.0000 C   0  0  0  0  0  0  0  0  0  0  0  0
    2.5567   -1.4610   -0.0000 C   0  0  0  0  0  0  0  0  0  0  0  0
    1.2607   -3.6995   -0.0000 C   0  0  0  0  0  0  0  0  0  0  0  0
   -2.6274   -1.4610   -0.0000 C   0  0  0  0  0  0  0  0  0  0  0  0
    2.5449    0.0471   -0.0000 C   0  0  0  0  0  0  0  0  0  0  0  0
    3.8527   -2.1914   -0.0000 C   0  0  0  0  0  0  0  0  0  0  0  0
   -2.6391    0.0471   -0.0000 C   0  0  0  0  0  0  0  0  0  0  0  0
   -3.9469   -2.1914   -0.0000 C   0  0  0  0  0  0  0  0  0  0  0  0
    3.8409    0.8012   -0.0000 C   0  0  0  0  0  0  0  0  0  0  0  0
    1.2371    0.7894   -0.0000 C   0  0  0  0  0  0  0  0  0  0  0  0
    5.1369   -1.4256   -0.0000 N   0  0  0  0  0  0  0  0  0  0  0  0
   -3.9587    0.8012   -0.0000 C   0  0  0  0  0  0  0  0  0  0  0  0
   -1.3549    0.8129   -0.0000 C   0  0  0  0  0  0  0  0  0  0  0  0
   -5.2547   -1.4374   -0.0000 C   0  0  0  0  0  0  0  0  0  0  0  0
    3.8291    2.3092   -0.0000 C   0  0  0  0  0  0  0  0  0  0  0  0
    1.2253    2.2975   -0.0000 C   0  0  0  0  0  0  0  0  0  0  0  0
    5.2665    0.0707   -0.0000 C   0  0  0  0  0  0  0  0  0  0  0  0
    6.4800   -2.0147   -0.0000 C   0  0  0  0  0  0  0  0  0  0  0  0
   -5.2665    0.0589   -0.0000 C   0  0  0  0  0  0  0  0  0  0  0  0
   -1.3785    2.3210   -0.0000 N   0  0  0  0  0  0  0  0  0  0  0  0
    2.5095    3.0751   -0.0000 C   0  0  0  0  0  0  0  0  0  0  0  0
    6.7157    0.4006   -0.0000 C   0  0  0  0  0  0  0  0  0  0  0  0
    7.4697   -0.8954   -0.0000 C   0  0  0  0  0  0  0  0  0  0  0  0
   -2.6863    3.0751   -0.0000 C   0  0  0  0  0  0  0  0  0  0  0  0
   -2.7098    4.5831   -0.0000 O   0  0  0  0  0  0  0  0  0  0  0  0
   -3.9940    2.3328   -0.0000 C   0  0  0  0  0  0  0  0  0  0  0  0
  1  2  2  0
  2  3  1  0
  2  4  1  0
  5  3  1  0
  3  6  1  0
  4  7  1  0
  5  8  1  0
  5  9  1  1
  7 10  2  0
  7 11  1  0
  8 12  2  0
  8 13  1  0
  9 14  1  0
 10 15  1  0
 10 16  1  0
 11 17  2  0
 12 18  1  0
 13 19  2  0
 14 20  1  0
 14 21  1  0
 15 22  2  0
 16 23  1  0
 18 24  2  0
 20 25  1  0
 21 26  1  0
 23 27  1  0
 27 28  2  0
 27 29  1  0
 17 22  1  0
 19 24  1  0
 25 26  1  0
M  END
>  <MolRegNo>  (1) 
319262

>  <m>  (1) 
=

>  <Value>  (1) 
35

>  <Unit>  (1) 
nM

>  <Type>  (1) 
IC50

>  <pValue>  (1) 
7.46

>  <Ligand Efficiency>  (1) 
0

>  <Binding Efficiency>  (1) 
0

>  <Surface Efficiency>  (1) 
0

>  <Assay Index>  (1) 
238842

>  <Assay Category>  (1) 


>  <Assay Organism>  (1) 
Homo sapiens

>  <Target ID>  (1) 
11365

>  <Target Name>  (1) 
Cytochrome P450 2D6

>  <Target Organism>  (1) 
Homo sapiens

>  <Target Description>  (1) 
Target is a single protein chain

>  <Sequence Accession>  (1) 
P10635

>  <Reference>  (1) 
Bioorg Med Chem Lett 15 (10), 2647-2652 (2005)

>  <Pubmed ID>  (1) 
15863335

>  <DOI>  (1) 
10.1016/j.bmcl.2005.03.020

$$$$
