4wnv_ligand_522
     RDKit          2D

 33 36  0  0  1  0  0  0  0  0999 V2000
    0.0000   -0.0000   -0.0000 F   0  0  0  0  0  0  0  0  0  0  0  0
    1.2928   -0.7302   -0.0000 C   0  0  0  0  0  0  0  0  0  0  0  0
    2.5857    0.0359   -0.0000 C   0  0  0  0  0  0  0  0  0  0  0  0
    1.2809   -2.2385   -0.0000 C   0  0  0  0  0  0  0  0  0  0  0  0
    3.8905   -0.7063   -0.0000 C   0  0  0  0  0  0  0  0  0  0  0  0
    2.5857   -2.9807   -0.0000 C   0  0  0  0  0  0  0  0  0  0  0  0
    3.8785   -2.2026   -0.0000 C   0  0  0  0  0  0  0  0  0  0  0  0
    5.1713   -2.9448   -0.0000 C   0  0  0  0  0  0  0  0  0  0  0  0
    6.4642   -2.1787   -0.0000 C   0  0  0  0  0  0  0  0  0  0  0  0
    7.7570   -2.9208   -0.0000 C   0  0  0  0  0  0  0  0  0  0  0  0
    6.4522   -0.6584   -0.0000 C   0  0  0  0  0  0  0  0  0  0  0  0
    9.0618   -2.1547   -0.0000 N   0  0  0  0  0  0  0  0  0  0  0  0
    7.7450    0.1077   -0.0000 C   0  0  0  0  0  0  0  0  0  0  0  0
    9.0498   -0.6344   -0.0000 C   0  0  0  0  0  0  0  0  0  0  0  0
   10.3547   -2.9089   -0.0000 C   0  0  0  0  0  0  0  0  0  0  0  0
   11.6475   -2.1308   -0.0000 C   0  0  0  0  0  0  0  0  0  0  0  0
   12.9523   -2.8730   -0.0000 C   0  0  0  0  0  0  0  0  0  0  0  0
   14.2451   -2.1068   -0.0000 N   0  0  0  0  0  0  0  0  0  0  0  0
   15.5380   -2.8490   -0.0000 C   0  0  0  0  0  0  0  0  0  0  0  0
   15.5260   -4.3573   -0.0000 O   0  0  0  0  0  0  0  0  0  0  0  0
   16.8308   -2.0829   -0.0000 N   0  0  0  0  0  0  0  0  0  0  0  0
   18.1356   -2.8490   -0.0000 C   0  0  0  0  0  0  0  0  0  0  0  0
   19.4284   -2.0829   -0.0000 C   0  0  0  0  0  0  0  0  0  0  0  0
   18.1236   -4.3573   -0.0000 C   0  0  0  0  0  0  0  0  0  0  0  0
   20.7213   -2.8251   -0.0000 C   0  0  0  0  0  0  0  0  0  0  0  0
   19.4165   -5.0995   -0.0000 C   0  0  0  0  0  0  0  0  0  0  0  0
   22.0141   -2.0590   -0.0000 C   0  0  0  0  0  0  0  0  0  0  0  0
   20.7093   -4.3334   -0.0000 C   0  0  0  0  0  0  0  0  0  0  0  0
   23.1394   -3.0166   -0.0000 N   0  0  0  0  0  0  0  0  0  0  0  0
   22.5408   -0.6584   -0.0000 N   0  0  0  0  0  0  0  0  0  0  0  0
   24.3723   -2.2265   -0.0000 N   0  0  0  0  0  0  0  0  0  0  0  0
   24.0012   -0.7661   -0.0000 N   0  0  0  0  0  0  0  0  0  0  0  0
   21.7148    0.6105   -0.0000 C   0  0  0  0  0  0  0  0  0  0  0  0
  1  2  1  0
  2  3  2  0
  2  4  1  0
  3  5  1  0
  4  6  2  0
  5  7  2  0
  7  8  1  0
  9  8  1  6
  9 10  1  0
  9 11  1  0
 10 12  1  0
 11 13  1  0
 12 14  1  0
 12 15  1  0
 15 16  1  0
 16 17  1  0
 17 18  1  0
 18 19  1  0
 19 20  2  0
 19 21  1  0
 21 22  1  0
 22 23  2  0
 22 24  1  0
 23 25  1  0
 24 26  2  0
 25 27  1  0
 25 28  2  0
 27 29  2  0
 27 30  1  0
 29 31  1  0
 30 32  1  0
 30 33  1  0
  6  7  1  0
 13 14  1  0
 26 28  1  0
 31 32  2  0
M  END
>  <MolRegNo>  (1) 
65250

>  <m>  (1) 
=

>  <Value>  (1) 
1600

>  <Unit>  (1) 
nM

>  <Type>  (1) 
IC50

>  <pValue>  (1) 
5.8

>  <Ligand Efficiency>  (1) 
0

>  <Binding Efficiency>  (1) 
0

>  <Surface Efficiency>  (1) 
0

>  <Assay Index>  (1) 
314783

>  <Assay Category>  (1) 


>  <Assay Organism>  (1) 


>  <Target ID>  (1) 
11365

>  <Target Name>  (1) 
Cytochrome P450 2D6

>  <Target Organism>  (1) 
Homo sapiens

>  <Target Description>  (1) 
Target is a single protein chain

>  <Sequence Accession>  (1) 
P10635

>  <Reference>  (1) 
Bioorg Med Chem Lett 18 (2), 576-585 (2008)

>  <Pubmed ID>  (1) 
18096386

>  <DOI>  (1) 
10.1016/j.bmcl.2007.11.067

$$$$
