4wnv_ligand_211
     RDKit          2D

 34 37  0  0  1  0  0  0  0  0999 V2000
    0.0000   -0.0000   -0.0000 S   0  0  0  0  0  0  0  0  0  0  0  0
    0.7389    1.3109   -0.0000 O   0  0  0  0  0  0  0  0  0  0  0  0
   -0.7627   -1.2990   -0.0000 O   0  0  0  0  0  0  0  0  0  0  0  0
   -1.3109    0.7627   -0.0000 N   0  0  0  0  0  0  0  0  0  0  0  0
    1.2751   -0.7389   -0.0000 C   0  0  0  0  0  0  0  0  0  0  0  0
   -1.3228    2.2762   -0.0000 C   0  0  0  0  0  0  0  0  0  0  0  0
   -0.0358    3.0388   -0.0000 C   0  0  0  0  0  0  0  0  0  0  0  0
    1.2394    2.3000   -0.0000 C   0  0  0  0  0  0  0  0  0  0  0  0
   -0.0477    4.5523   -0.0000 C   0  0  0  0  0  0  0  0  0  0  0  0
    2.5145    3.0508   -0.0000 C   0  0  0  0  0  0  0  0  0  0  0  0
    1.2394    5.3031   -0.0000 C   0  0  0  0  0  0  0  0  0  0  0  0
    2.5145    4.5642   -0.0000 C   0  0  0  0  0  0  0  0  0  0  0  0
    3.8015    2.3119   -0.0000 C   0  0  0  0  0  0  0  0  0  0  0  0
    3.8015    5.3269   -0.0000 O   0  0  0  0  0  0  0  0  0  0  0  0
    5.1005    3.0746   -0.0000 C   0  0  0  0  0  0  0  0  0  0  0  0
    5.1005    4.5881   -0.0000 C   0  0  0  0  0  0  0  0  0  0  0  0
    6.3875    5.3507   -0.0000 C   0  0  0  0  0  0  0  0  0  0  0  0
    6.3756    6.8642   -0.0000 O   0  0  0  0  0  0  0  0  0  0  0  0
    7.6746    4.6119   -0.0000 N   0  0  0  0  0  0  0  0  0  0  0  0
    8.9616    5.3746   -0.0000 C   0  0  0  0  0  0  0  0  0  0  0  0
    7.6626    3.1223   -0.0000 C   0  0  0  0  0  0  0  0  0  0  0  0
    8.9497    6.8880   -0.0000 C   0  0  0  0  0  0  0  0  0  0  0  0
   10.2486    4.6357   -0.0000 C   0  0  0  0  0  0  0  0  0  0  0  0
    7.6388    7.6507   -0.0000 C   0  0  0  0  0  0  0  0  0  0  0  0
   10.2486    7.6507   -0.0000 C   0  0  0  0  0  0  0  0  0  0  0  0
   11.5357    5.3984   -0.0000 N   0  0  0  0  0  0  0  0  0  0  0  0
    7.6269    9.1761   -0.0000 C   0  0  0  0  0  0  0  0  0  0  0  0
   10.2367    9.1761   -0.0000 C   0  0  0  0  0  0  0  0  0  0  0  0
   12.8942    4.8026   -0.0000 C   0  0  0  0  0  0  0  0  0  0  0  0
   11.6787    6.9119   -0.0000 C   0  0  0  0  0  0  0  0  0  0  0  0
    8.9139    9.9388   -0.0000 C   0  0  0  0  0  0  0  0  0  0  0  0
   13.8833    5.9347   -0.0000 C   0  0  0  0  0  0  0  0  0  0  0  0
   13.1326    7.2336   -0.0000 C   0  0  0  0  0  0  0  0  0  0  0  0
   15.3610    5.7917   -0.0000 O   0  0  0  0  0  0  0  0  0  0  0  0
  1  2  2  0
  1  3  2  0
  1  4  1  0
  1  5  1  0
  4  6  1  0
  6  7  1  0
  7  8  2  0
  7  9  1  0
  8 10  1  0
  9 11  2  0
 10 12  2  0
 10 13  1  0
 12 14  1  0
 13 15  1  0
 14 16  1  0
 16 17  1  1
 17 18  2  0
 17 19  1  0
 20 19  1  0
 19 21  1  0
 20 22  1  0
 20 23  1  1
 22 24  2  0
 22 25  1  0
 23 26  1  0
 24 27  1  0
 25 28  2  0
 26 29  1  0
 26 30  1  0
 27 31  2  0
 29 32  1  0
 30 33  1  0
 32 34  1  6
 11 12  1  0
 15 16  1  0
 28 31  1  0
 32 33  1  0
M  END
>  <MolRegNo>  (1) 
332060

>  <m>  (1) 
=

>  <Value>  (1) 
3900

>  <Unit>  (1) 
nM

>  <Type>  (1) 
IC50

>  <pValue>  (1) 
5.41

>  <Ligand Efficiency>  (1) 
0

>  <Binding Efficiency>  (1) 
0

>  <Surface Efficiency>  (1) 
0

>  <Assay Index>  (1) 
253815

>  <Assay Category>  (1) 


>  <Assay Organism>  (1) 
Homo sapiens

>  <Target ID>  (1) 
11365

>  <Target Name>  (1) 
Cytochrome P450 2D6

>  <Target Organism>  (1) 
Homo sapiens

>  <Target Description>  (1) 
Target is a single protein chain

>  <Sequence Accession>  (1) 
P10635

>  <Reference>  (1) 
Bioorg Med Chem Lett 15 (23), 5114-5119 (2005)

>  <Pubmed ID>  (1) 
16203140

>  <DOI>  (1) 
10.1016/j.bmcl.2005.08.094

$$$$
