4wnv_ligand_841
     RDKit          2D

 29 30  0  0  0  0  0  0  0  0999 V2000
    0.0000   -0.0000   -0.0000 S   0  0  0  0  0  0  0  0  0  0  0  0
    1.2085   -0.3944   -0.0000 O   0  0  0  0  0  0  0  0  0  0  0  0
    0.2544   -1.2467   -0.0000 O   0  0  0  0  0  0  0  0  0  0  0  0
   -1.2212   -1.0559   -0.0000 N   0  0  0  0  0  0  0  0  0  0  0  0
   -0.3435    1.5901   -0.0000 C   0  0  0  0  0  0  0  0  0  0  0  0
   -0.9032   -2.6205   -0.0000 C   0  0  0  0  0  0  0  0  0  0  0  0
    0.6106    2.4679   -0.0000 F   0  0  0  0  0  0  0  0  0  0  0  0
   -1.5774    2.0099   -0.0000 F   0  0  0  0  0  0  0  0  0  0  0  0
   -0.6233    2.8622   -0.0000 F   0  0  0  0  0  0  0  0  0  0  0  0
   -2.1244   -3.6764   -0.0000 C   0  0  0  0  0  0  0  0  0  0  0  0
   -1.9845   -5.2538   -0.0000 N   0  0  0  0  0  0  0  0  0  0  0  0
   -3.7146   -3.3329   -0.0000 C   0  0  0  0  0  0  0  0  0  0  0  0
   -0.5979   -6.0552   -0.0000 C   0  0  0  0  0  0  0  0  0  0  0  0
   -3.4474   -5.9153   -0.0000 C   0  0  0  0  0  0  0  0  0  0  0  0
   -4.5287   -4.7195   -0.0000 C   0  0  0  0  0  0  0  0  0  0  0  0
    0.5088   -5.3937   -0.0000 O   0  0  0  0  0  0  0  0  0  0  0  0
   -0.6106   -7.6581   -0.0000 C   0  0  0  0  0  0  0  0  0  0  0  0
    0.7760   -8.4595   -0.0000 C   0  0  0  0  0  0  0  0  0  0  0  0
    1.8827   -7.7980   -0.0000 N   0  0  0  0  0  0  0  0  0  0  0  0
    0.7633  -10.0624   -0.0000 C   0  0  0  0  0  0  0  0  0  0  0  0
    2.1499  -10.8638   -0.0000 C   0  0  0  0  0  0  0  0  0  0  0  0
    2.1371  -12.4667   -0.0000 C   0  0  0  0  0  0  0  0  0  0  0  0
    3.5365  -10.0497   -0.0000 C   0  0  0  0  0  0  0  0  0  0  0  0
    1.0050  -13.1027   -0.0000 F   0  0  0  0  0  0  0  0  0  0  0  0
    3.5237  -13.2554   -0.0000 C   0  0  0  0  0  0  0  0  0  0  0  0
    4.9231  -10.8384   -0.0000 C   0  0  0  0  0  0  0  0  0  0  0  0
    4.9103  -12.4412   -0.0000 C   0  0  0  0  0  0  0  0  0  0  0  0
    6.0298  -10.1769   -0.0000 F   0  0  0  0  0  0  0  0  0  0  0  0
    6.0171  -13.0773   -0.0000 F   0  0  0  0  0  0  0  0  0  0  0  0
  1  2  2  0
  1  3  2  0
  1  4  1  0
  1  5  1  0
  4  6  1  0
  5  7  1  0
  5  8  1  0
  5  9  1  0
 10  6  1  6
 10 11  1  0
 10 12  1  0
 11 13  1  0
 11 14  1  0
 12 15  1  0
 13 16  2  0
 13 17  1  0
 17 18  1  0
 18 19  1  1
 18 20  1  0
 20 21  1  0
 21 22  2  0
 21 23  1  0
 22 24  1  0
 22 25  1  0
 23 26  2  0
 25 27  2  0
 26 28  1  0
 27 29  1  0
 14 15  1  0
 26 27  1  0
M  END
>  <MolRegNo>  (1) 
558900

>  <m>  (1) 
=

>  <Value>  (1) 
12400

>  <Unit>  (1) 
nM

>  <Type>  (1) 
IC50

>  <pValue>  (1) 
4.91

>  <Ligand Efficiency>  (1) 
0

>  <Binding Efficiency>  (1) 
0

>  <Surface Efficiency>  (1) 
0

>  <Assay Index>  (1) 
428036

>  <Assay Category>  (1) 


>  <Assay Organism>  (1) 
Homo sapiens

>  <Target ID>  (1) 
11365

>  <Target Name>  (1) 
Cytochrome P450 2D6

>  <Target Organism>  (1) 
Homo sapiens

>  <Target Description>  (1) 
Target is a single protein chain

>  <Sequence Accession>  (1) 
P10635

>  <Reference>  (1) 
Bioorg Med Chem Lett 19 (16), 4818-4823 (2009)

>  <Pubmed ID>  (1) 
19576767

>  <DOI>  (1) 
10.1016/j.bmcl.2009.06.036

$$$$
