4wnv_ligand_586
     RDKit          2D

 36 38  0  0  0  0  0  0  0  0999 V2000
    0.0000   -0.0000   -0.0000 F   0  0  0  0  0  0  0  0  0  0  0  0
    1.3157   -0.6993   -0.0000 C   0  0  0  0  0  0  0  0  0  0  0  0
    2.5840    0.1067   -0.0000 C   0  0  0  0  0  0  0  0  0  0  0  0
    1.3394   -2.1929   -0.0000 C   0  0  0  0  0  0  0  0  0  0  0  0
    3.8998   -0.5927   -0.0000 C   0  0  0  0  0  0  0  0  0  0  0  0
    2.5366    1.6239   -0.0000 C   0  0  0  0  0  0  0  0  0  0  0  0
    2.6552   -2.9041   -0.0000 C   0  0  0  0  0  0  0  0  0  0  0  0
    5.1681    0.2134   -0.0000 F   0  0  0  0  0  0  0  0  0  0  0  0
    3.9353   -2.0862   -0.0000 C   0  0  0  0  0  0  0  0  0  0  0  0
    1.1972    2.3470   -0.0000 O   0  0  0  0  0  0  0  0  0  0  0  0
    3.8049    2.4181   -0.0000 N   0  0  0  0  0  0  0  0  0  0  0  0
    3.7575    3.9353   -0.0000 C   0  0  0  0  0  0  0  0  0  0  0  0
    5.1207    1.7187   -0.0000 C   0  0  0  0  0  0  0  0  0  0  0  0
    5.0258    4.7295   -0.0000 C   0  0  0  0  0  0  0  0  0  0  0  0
    5.8081    3.4612   -0.0000 O   0  0  0  0  0  0  0  0  0  0  0  0
    4.2198    6.0215   -0.0000 C   0  0  0  0  0  0  0  0  0  0  0  0
    6.2823    5.5474   -0.0000 C   0  0  0  0  0  0  0  0  0  0  0  0
    3.4019    7.3254   -0.0000 F   0  0  0  0  0  0  0  0  0  0  0  0
    5.4881    6.8275   -0.0000 F   0  0  0  0  0  0  0  0  0  0  0  0
    2.9396    5.2273   -0.0000 F   0  0  0  0  0  0  0  0  0  0  0  0
    7.5980    4.8599   -0.0000 N   0  0  0  0  0  0  0  0  0  0  0  0
    8.8545    5.6778   -0.0000 C   0  0  0  0  0  0  0  0  0  0  0  0
    8.7833    7.1950   -0.0000 O   0  0  0  0  0  0  0  0  0  0  0  0
   10.1702    4.9903   -0.0000 C   0  0  0  0  0  0  0  0  0  0  0  0
   10.3835    3.5205   -0.0000 C   0  0  0  0  0  0  0  0  0  0  0  0
   11.5096    5.6778   -0.0000 C   0  0  0  0  0  0  0  0  0  0  0  0
   11.8534    3.2715   -0.0000 N   0  0  0  0  0  0  0  0  0  0  0  0
    9.2930    2.4774   -0.0000 N   0  0  0  0  0  0  0  0  0  0  0  0
   12.5527    4.6110   -0.0000 N   0  0  0  0  0  0  0  0  0  0  0  0
   12.5053    1.9321   -0.0000 C   0  0  0  0  0  0  0  0  0  0  0  0
   11.6519    0.6993   -0.0000 C   0  0  0  0  0  0  0  0  0  0  0  0
   13.9870    1.8491   -0.0000 C   0  0  0  0  0  0  0  0  0  0  0  0
   12.3038   -0.6401   -0.0000 C   0  0  0  0  0  0  0  0  0  0  0  0
   14.6389    0.5215   -0.0000 C   0  0  0  0  0  0  0  0  0  0  0  0
   13.7973   -0.7231   -0.0000 C   0  0  0  0  0  0  0  0  0  0  0  0
   14.4493   -2.0625   -0.0000 F   0  0  0  0  0  0  0  0  0  0  0  0
  1  2  1  0
  2  3  2  0
  2  4  1  0
  3  5  1  0
  3  6  1  0
  4  7  2  0
  5  8  1  0
  5  9  2  0
  6 10  2  0
  6 11  1  0
 11 12  1  0
 11 13  1  0
 12 14  1  0
 14 15  1  0
 14 16  1  0
 14 17  1  0
 16 18  1  0
 16 19  1  0
 16 20  1  0
 17 21  1  0
 21 22  1  0
 22 23  2  0
 22 24  1  0
 24 25  2  0
 24 26  1  0
 25 27  1  0
 25 28  1  0
 26 29  2  0
 27 30  1  0
 30 31  2  0
 30 32  1  0
 31 33  1  0
 32 34  2  0
 33 35  2  0
 35 36  1  0
  7  9  1  0
 27 29  1  0
 34 35  1  0
M  END
>  <MolRegNo>  (1) 
472975

>  <m>  (1) 
=

>  <Value>  (1) 
36000

>  <Unit>  (1) 
nM

>  <Type>  (1) 
IC50

>  <pValue>  (1) 
4.44

>  <Ligand Efficiency>  (1) 
0

>  <Binding Efficiency>  (1) 
0

>  <Surface Efficiency>  (1) 
0

>  <Assay Index>  (1) 
407328

>  <Assay Category>  (1) 


>  <Assay Organism>  (1) 


>  <Target ID>  (1) 
11365

>  <Target Name>  (1) 
Cytochrome P450 2D6

>  <Target Organism>  (1) 
Homo sapiens

>  <Target Description>  (1) 
Target is a single protein chain

>  <Sequence Accession>  (1) 
P10635

>  <Reference>  (1) 
Bioorg Med Chem Lett 19 (1), 158-162 (2009)

>  <Pubmed ID>  (1) 
19019676

>  <DOI>  (1) 
10.1016/j.bmcl.2008.10.128

$$$$
