4wnv_ligand_268
     RDKit          2D

 27 29  0  0  0  0  0  0  0  0999 V2000
    0.0000   -0.0000   -0.0000 F   0  0  0  0  0  0  0  0  0  0  0  0
    1.4806   -0.1421   -0.0000 C   0  0  0  0  0  0  0  0  0  0  0  0
    2.0847   -1.5043   -0.0000 C   0  0  0  0  0  0  0  0  0  0  0  0
    2.3571    1.0897   -0.0000 C   0  0  0  0  0  0  0  0  0  0  0  0
    3.5652   -1.6464   -0.0000 C   0  0  0  0  0  0  0  0  0  0  0  0
    3.8377    0.9476   -0.0000 C   0  0  0  0  0  0  0  0  0  0  0  0
    4.4418   -0.4146   -0.0000 C   0  0  0  0  0  0  0  0  0  0  0  0
    5.9223   -0.5567   -0.0000 N   0  0  0  0  0  0  0  0  0  0  0  0
    6.6686   -1.8478   -0.0000 N   0  0  0  0  0  0  0  0  0  0  0  0
    6.9173    0.5685   -0.0000 C   0  0  0  0  0  0  0  0  0  0  0  0
    8.1254   -1.5280   -0.0000 C   0  0  0  0  0  0  0  0  0  0  0  0
    6.5975    2.0491   -0.0000 N   0  0  0  0  0  0  0  0  0  0  0  0
    8.2794   -0.0355   -0.0000 C   0  0  0  0  0  0  0  0  0  0  0  0
    9.5705    0.7225   -0.0000 C   0  0  0  0  0  0  0  0  0  0  0  0
   10.8616   -0.0237   -0.0000 O   0  0  0  0  0  0  0  0  0  0  0  0
    9.5587    2.2386   -0.0000 C   0  0  0  0  0  0  0  0  0  0  0  0
   10.8497    2.9967   -0.0000 C   0  0  0  0  0  0  0  0  0  0  0  0
    8.2439    2.9967   -0.0000 C   0  0  0  0  0  0  0  0  0  0  0  0
   10.8379    4.5128   -0.0000 C   0  0  0  0  0  0  0  0  0  0  0  0
    8.2321    4.5128   -0.0000 C   0  0  0  0  0  0  0  0  0  0  0  0
   12.1289    5.2709   -0.0000 O   0  0  0  0  0  0  0  0  0  0  0  0
    9.5231    5.2709   -0.0000 C   0  0  0  0  0  0  0  0  0  0  0  0
   13.4200    4.5247   -0.0000 C   0  0  0  0  0  0  0  0  0  0  0  0
   14.7111    5.2827   -0.0000 C   0  0  0  0  0  0  0  0  0  0  0  0
   14.6992    6.7988   -0.0000 O   0  0  0  0  0  0  0  0  0  0  0  0
   16.0022    4.5365   -0.0000 C   0  0  0  0  0  0  0  0  0  0  0  0
   17.2932    5.2946   -0.0000 O   0  0  0  0  0  0  0  0  0  0  0  0
  1  2  1  0
  2  3  2  0
  2  4  1  0
  3  5  1  0
  4  6  2  0
  5  7  2  0
  7  8  1  0
  8  9  1  0
  8 10  1  0
  9 11  2  0
 10 12  1  0
 10 13  2  0
 13 14  1  0
 14 15  2  0
 14 16  1  0
 16 17  2  0
 16 18  1  0
 17 19  1  0
 18 20  2  0
 19 21  1  0
 19 22  2  0
 21 23  1  0
 23 24  1  0
 24 25  1  1
 24 26  1  0
 26 27  1  0
  6  7  1  0
 11 13  1  0
 20 22  1  0
M  END
>  <MolRegNo>  (1) 
340673

>  <m>  (1) 
=

>  <Value>  (1) 
25000

>  <Unit>  (1) 
nM

>  <Type>  (1) 
IC50

>  <pValue>  (1) 
4.6

>  <Ligand Efficiency>  (1) 
0

>  <Binding Efficiency>  (1) 
0

>  <Surface Efficiency>  (1) 
0

>  <Assay Index>  (1) 
258218

>  <Assay Category>  (1) 


>  <Assay Organism>  (1) 
Homo sapiens

>  <Target ID>  (1) 
11365

>  <Target Name>  (1) 
Cytochrome P450 2D6

>  <Target Organism>  (1) 
Homo sapiens

>  <Target Description>  (1) 
Target is a single protein chain

>  <Sequence Accession>  (1) 
P10635

>  <Reference>  (1) 
J Med Chem 49 (5), 1562-1575 (2006)

>  <Pubmed ID>  (1) 
16509574

>  <DOI>  (1) 
10.1021/jm050736c

$$$$
