4wnv_ligand_901
     RDKit          2D

 27 29  0  0  0  0  0  0  0  0999 V2000
    0.0000   -0.0000   -0.0000 Cl  0  0  0  0  0  0  0  0  0  0  0  0
    1.2906   -0.7341   -0.0000 C   0  0  0  0  0  0  0  0  0  0  0  0
    1.2788   -2.2261   -0.0000 C   0  0  0  0  0  0  0  0  0  0  0  0
    2.5813    0.0237   -0.0000 C   0  0  0  0  0  0  0  0  0  0  0  0
   -0.0355   -2.9720   -0.0000 C   0  0  0  0  0  0  0  0  0  0  0  0
    2.5694   -2.9720   -0.0000 C   0  0  0  0  0  0  0  0  0  0  0  0
    3.8719   -0.7104   -0.0000 C   0  0  0  0  0  0  0  0  0  0  0  0
   -1.3498   -3.7061   -0.0000 N   0  0  0  0  0  0  0  0  0  0  0  0
    3.8601   -2.2024   -0.0000 C   0  0  0  0  0  0  0  0  0  0  0  0
    5.1626    0.0474   -0.0000 N   0  0  0  0  0  0  0  0  0  0  0  0
    6.4532   -0.6868   -0.0000 C   0  0  0  0  0  0  0  0  0  0  0  0
    5.1507    1.5630   -0.0000 C   0  0  0  0  0  0  0  0  0  0  0  0
    7.8149   -0.0592   -0.0000 C   0  0  0  0  0  0  0  0  0  0  0  0
    6.5953   -2.1669   -0.0000 C   0  0  0  0  0  0  0  0  0  0  0  0
    3.8364    2.3208   -0.0000 C   0  0  0  0  0  0  0  0  0  0  0  0
    8.8095   -1.1604   -0.0000 N   0  0  0  0  0  0  0  0  0  0  0  0
    8.0517   -2.4629   -0.0000 C   0  0  0  0  0  0  0  0  0  0  0  0
    3.8246    3.8364   -0.0000 C   0  0  0  0  0  0  0  0  0  0  0  0
    2.5221    1.5867   -0.0000 C   0  0  0  0  0  0  0  0  0  0  0  0
   10.3014   -1.1486   -0.0000 C   0  0  0  0  0  0  0  0  0  0  0  0
    2.5102    4.5942   -0.0000 C   0  0  0  0  0  0  0  0  0  0  0  0
    5.1152    4.5942   -0.0000 C   0  0  0  0  0  0  0  0  0  0  0  0
    1.2078    2.3445   -0.0000 C   0  0  0  0  0  0  0  0  0  0  0  0
    1.1959    3.8482   -0.0000 C   0  0  0  0  0  0  0  0  0  0  0  0
    6.4058    3.8482   -0.0000 F   0  0  0  0  0  0  0  0  0  0  0  0
    5.1034    6.1098   -0.0000 F   0  0  0  0  0  0  0  0  0  0  0  0
    6.4058    5.3520   -0.0000 F   0  0  0  0  0  0  0  0  0  0  0  0
  1  2  1  0
  2  3  2  0
  2  4  1  0
  3  5  1  0
  3  6  1  0
  4  7  2  0
  5  8  3  0
  6  9  2  0
  7 10  1  0
 11 10  1  6
 10 12  1  0
 11 13  1  0
 11 14  1  0
 12 15  1  0
 13 16  1  0
 14 17  1  0
 15 18  2  0
 15 19  1  0
 16 20  1  0
 18 21  1  0
 18 22  1  0
 19 23  2  0
 21 24  2  0
 22 25  1  0
 22 26  1  0
 22 27  1  0
  7  9  1  0
 16 17  1  0
 23 24  1  0
M  END
>  <MolRegNo>  (1) 
566440

>  <m>  (1) 
=

>  <Value>  (1) 
1600

>  <Unit>  (1) 
nM

>  <Type>  (1) 
IC50

>  <pValue>  (1) 
5.8

>  <Ligand Efficiency>  (1) 
0

>  <Binding Efficiency>  (1) 
0

>  <Surface Efficiency>  (1) 
0

>  <Assay Index>  (1) 
452357

>  <Assay Category>  (1) 


>  <Assay Organism>  (1) 


>  <Target ID>  (1) 
11365

>  <Target Name>  (1) 
Cytochrome P450 2D6

>  <Target Organism>  (1) 
Homo sapiens

>  <Target Description>  (1) 
Target is a single protein chain

>  <Sequence Accession>  (1) 
P10635

>  <Reference>  (1) 
Bioorg Med Chem Lett 20 (1), 371-374 (2010)

>  <Pubmed ID>  (1) 
19926282

>  <DOI>  (1) 
10.1016/j.bmcl.2009.10.092

$$$$
