4wnv_ligand_204
     RDKit          2D

 32 35  0  0  1  0  0  0  0  0999 V2000
    0.0000   -0.0000   -0.0000 O   0  0  0  0  0  0  0  0  0  0  0  0
   -0.0119   -1.4879   -0.0000 C   0  0  0  0  0  0  0  0  0  0  0  0
    1.2736   -2.2259   -0.0000 N   0  0  0  0  0  0  0  0  0  0  0  0
   -1.3212   -2.2259   -0.0000 C   0  0  0  0  0  0  0  0  0  0  0  0
    2.5591   -1.4641   -0.0000 C   0  0  0  0  0  0  0  0  0  0  0  0
    1.2617   -3.7137   -0.0000 C   0  0  0  0  0  0  0  0  0  0  0  0
   -2.6425   -1.4641   -0.0000 O   0  0  0  0  0  0  0  0  0  0  0  0
   -1.3331   -3.7137   -0.0000 C   0  0  0  0  0  0  0  0  0  0  0  0
    2.5472    0.0476   -0.0000 C   0  0  0  0  0  0  0  0  0  0  0  0
    3.8447   -2.2021   -0.0000 C   0  0  0  0  0  0  0  0  0  0  0  0
   -3.9518   -2.2021   -0.0000 C   0  0  0  0  0  0  0  0  0  0  0  0
   -2.6544   -4.4517   -0.0000 C   0  0  0  0  0  0  0  0  0  0  0  0
    1.2379    0.8094   -0.0000 C   0  0  0  0  0  0  0  0  0  0  0  0
    3.8447    0.8094   -0.0000 C   0  0  0  0  0  0  0  0  0  0  0  0
    5.1302   -1.4403   -0.0000 N   0  0  0  0  0  0  0  0  0  0  0  0
   -3.9756   -3.6899   -0.0000 C   0  0  0  0  0  0  0  0  0  0  0  0
   -5.2492   -1.4403   -0.0000 C   0  0  0  0  0  0  0  0  0  0  0  0
    1.2260    2.3330   -0.0000 C   0  0  0  0  0  0  0  0  0  0  0  0
    3.8328    2.3330   -0.0000 C   0  0  0  0  0  0  0  0  0  0  0  0
    6.4871   -2.0354   -0.0000 C   0  0  0  0  0  0  0  0  0  0  0  0
    5.2730    0.0714   -0.0000 C   0  0  0  0  0  0  0  0  0  0  0  0
   -5.2730   -4.4160   -0.0000 C   0  0  0  0  0  0  0  0  0  0  0  0
   -6.5586   -2.1663   -0.0000 C   0  0  0  0  0  0  0  0  0  0  0  0
    2.5115    3.0948   -0.0000 C   0  0  0  0  0  0  0  0  0  0  0  0
    7.4751   -0.9046   -0.0000 C   0  0  0  0  0  0  0  0  0  0  0  0
    6.7252    0.3928   -0.0000 C   0  0  0  0  0  0  0  0  0  0  0  0
   -6.5705   -3.6542   -0.0000 C   0  0  0  0  0  0  0  0  0  0  0  0
    8.9511   -1.0475   -0.0000 O   0  0  0  0  0  0  0  0  0  0  0  0
   -7.8798   -4.3922   -0.0000 N   0  0  0  0  0  0  0  0  0  0  0  0
   -7.8917   -5.8801   -0.0000 C   0  0  0  0  0  0  0  0  0  0  0  0
   -9.2010   -6.6181   -0.0000 O   0  0  0  0  0  0  0  0  0  0  0  0
   -6.6062   -6.6181   -0.0000 C   0  0  0  0  0  0  0  0  0  0  0  0
  1  2  2  0
  2  3  1  0
  2  4  1  0
  5  3  1  0
  3  6  1  0
  4  7  1  0
  4  8  1  0
  5  9  1  0
  5 10  1  1
  7 11  1  0
  8 12  1  0
  9 13  2  0
  9 14  1  0
 10 15  1  0
 11 16  2  0
 11 17  1  0
 13 18  1  0
 14 19  2  0
 15 20  1  0
 15 21  1  0
 16 22  1  0
 17 23  2  0
 18 24  2  0
 20 25  1  0
 21 26  1  0
 22 27  2  0
 25 28  1  6
 27 29  1  0
 29 30  1  0
 30 31  2  0
 30 32  1  0
 12 16  1  0
 19 24  1  0
 23 27  1  0
 25 26  1  0
M  END
>  <MolRegNo>  (1) 
331962

>  <m>  (1) 
=

>  <Value>  (1) 
2900

>  <Unit>  (1) 
nM

>  <Type>  (1) 
IC50

>  <pValue>  (1) 
5.54

>  <Ligand Efficiency>  (1) 
0

>  <Binding Efficiency>  (1) 
0

>  <Surface Efficiency>  (1) 
0

>  <Assay Index>  (1) 
253815

>  <Assay Category>  (1) 


>  <Assay Organism>  (1) 
Homo sapiens

>  <Target ID>  (1) 
11365

>  <Target Name>  (1) 
Cytochrome P450 2D6

>  <Target Organism>  (1) 
Homo sapiens

>  <Target Description>  (1) 
Target is a single protein chain

>  <Sequence Accession>  (1) 
P10635

>  <Reference>  (1) 
Bioorg Med Chem Lett 15 (23), 5114-5119 (2005)

>  <Pubmed ID>  (1) 
16203140

>  <DOI>  (1) 
10.1016/j.bmcl.2005.08.094

$$$$
