4wnv_ligand_784
     RDKit          2D

 24 27  0  0  0  0  0  0  0  0999 V2000
    0.0000   -0.0000   -0.0000 O   0  0  0  0  0  0  0  0  0  0  0  0
   -1.0512    1.0855   -0.0000 C   0  0  0  0  0  0  0  0  0  0  0  0
   -2.5137    0.7427   -0.0000 N   0  0  0  0  0  0  0  0  0  0  0  0
   -0.6513    2.5366   -0.0000 C   0  0  0  0  0  0  0  0  0  0  0  0
    0.7884    2.9022   -0.0000 C   0  0  0  0  0  0  0  0  0  0  0  0
   -1.7025    3.6220   -0.0000 C   0  0  0  0  0  0  0  0  0  0  0  0
    1.1883    4.3533   -0.0000 C   0  0  0  0  0  0  0  0  0  0  0  0
   -1.3026    5.0731   -0.0000 C   0  0  0  0  0  0  0  0  0  0  0  0
    0.1371    5.4387   -0.0000 C   0  0  0  0  0  0  0  0  0  0  0  0
    0.5370    6.8898   -0.0000 C   0  0  0  0  0  0  0  0  0  0  0  0
   -0.5142    7.9753   -0.0000 C   0  0  0  0  0  0  0  0  0  0  0  0
    1.9767    7.2555   -0.0000 C   0  0  0  0  0  0  0  0  0  0  0  0
   -0.1143    9.4264   -0.0000 C   0  0  0  0  0  0  0  0  0  0  0  0
   -1.9767    7.6325   -0.0000 C   0  0  0  0  0  0  0  0  0  0  0  0
    2.3766    8.7065   -0.0000 C   0  0  0  0  0  0  0  0  0  0  0  0
    1.3254    9.7920   -0.0000 O   0  0  0  0  0  0  0  0  0  0  0  0
   -1.1654   10.5118   -0.0000 C   0  0  0  0  0  0  0  0  0  0  0  0
   -3.0279    8.7180   -0.0000 C   0  0  0  0  0  0  0  0  0  0  0  0
    2.7765   10.1576   -0.0000 C   0  0  0  0  0  0  0  0  0  0  0  0
    3.4049    7.6439   -0.0000 C   0  0  0  0  0  0  0  0  0  0  0  0
   -2.6280   10.1691   -0.0000 C   0  0  0  0  0  0  0  0  0  0  0  0
    4.2162   10.5233   -0.0000 C   0  0  0  0  0  0  0  0  0  0  0  0
    4.8446    8.0096   -0.0000 C   0  0  0  0  0  0  0  0  0  0  0  0
    5.2445    9.4607   -0.0000 N   0  0  0  0  0  0  0  0  0  0  0  0
  1  2  2  0
  2  3  1  0
  2  4  1  0
  4  5  2  0
  4  6  1  0
  5  7  1  0
  6  8  2  0
  7  9  2  0
  9 10  1  0
 10 11  1  0
 10 12  2  0
 11 13  2  0
 11 14  1  0
 12 15  1  0
 13 16  1  0
 13 17  1  0
 14 18  2  0
 15 19  1  0
 15 20  1  0
 17 21  2  0
 19 22  1  0
 20 23  1  0
 22 24  1  0
  8  9  1  0
 15 16  1  0
 18 21  1  0
 23 24  1  0
M  END
>  <MolRegNo>  (1) 
562714

>  <m>  (1) 
=

>  <Value>  (1) 
440

>  <Unit>  (1) 
nM

>  <Type>  (1) 
IC50

>  <pValue>  (1) 
6.36

>  <Ligand Efficiency>  (1) 
0

>  <Binding Efficiency>  (1) 
0

>  <Surface Efficiency>  (1) 
0

>  <Assay Index>  (1) 
428577

>  <Assay Category>  (1) 


>  <Assay Organism>  (1) 
Homo sapiens

>  <Target ID>  (1) 
11365

>  <Target Name>  (1) 
Cytochrome P450 2D6

>  <Target Organism>  (1) 
Homo sapiens

>  <Target Description>  (1) 
Target is a single protein chain

>  <Sequence Accession>  (1) 
P10635

>  <Reference>  (1) 
J Med Chem 52 (18), 5685-5702 (2009)

>  <Pubmed ID>  (1) 
19694468

>  <DOI>  (1) 
10.1021/jm900773n

$$$$
