4wnv_ligand_649
     RDKit          2D

 38 42  0  0  0  0  0  0  0  0999 V2000
    0.0000   -0.0000   -0.0000 Cl  0  0  0  0  0  0  0  0  0  0  0  0
    1.2896    0.7690   -0.0000 C   0  0  0  0  0  0  0  0  0  0  0  0
    1.2660    2.2834   -0.0000 C   0  0  0  0  0  0  0  0  0  0  0  0
    2.5674    0.0473   -0.0000 C   0  0  0  0  0  0  0  0  0  0  0  0
   -0.0473    3.0407   -0.0000 Cl  0  0  0  0  0  0  0  0  0  0  0  0
    2.5437    3.0407   -0.0000 C   0  0  0  0  0  0  0  0  0  0  0  0
    3.8334    0.8045   -0.0000 C   0  0  0  0  0  0  0  0  0  0  0  0
    3.8215    2.3071   -0.0000 C   0  0  0  0  0  0  0  0  0  0  0  0
    5.1230    0.0592   -0.0000 O   0  0  0  0  0  0  0  0  0  0  0  0
    5.1111    3.0643   -0.0000 N   0  0  0  0  0  0  0  0  0  0  0  0
    6.4126    0.8282   -0.0000 C   0  0  0  0  0  0  0  0  0  0  0  0
    6.4008    2.3426   -0.0000 C   0  0  0  0  0  0  0  0  0  0  0  0
    5.0993    4.5787   -0.0000 C   0  0  0  0  0  0  0  0  0  0  0  0
    7.6904    3.1116   -0.0000 O   0  0  0  0  0  0  0  0  0  0  0  0
    6.3889    5.3478   -0.0000 C   0  0  0  0  0  0  0  0  0  0  0  0
    7.6785    4.6142   -0.0000 O   0  0  0  0  0  0  0  0  0  0  0  0
    6.3771    6.8622   -0.0000 N   0  0  0  0  0  0  0  0  0  0  0  0
    7.6785    7.6312   -0.0000 C   0  0  0  0  0  0  0  0  0  0  0  0
    5.0756    7.6194   -0.0000 C   0  0  0  0  0  0  0  0  0  0  0  0
    7.6667    9.1338   -0.0000 C   0  0  0  0  0  0  0  0  0  0  0  0
    8.9682    6.8977   -0.0000 C   0  0  0  0  0  0  0  0  0  0  0  0
    8.9563    9.8910   -0.0000 C   0  0  0  0  0  0  0  0  0  0  0  0
    6.3653    9.8792   -0.0000 C   0  0  0  0  0  0  0  0  0  0  0  0
   10.2578    7.6549   -0.0000 N   0  0  0  0  0  0  0  0  0  0  0  0
    8.9445   11.3936   -0.0000 C   0  0  0  0  0  0  0  0  0  0  0  0
    6.3534   11.3936   -0.0000 C   0  0  0  0  0  0  0  0  0  0  0  0
   11.5356    6.9213   -0.0000 C   0  0  0  0  0  0  0  0  0  0  0  0
   10.2341    9.1693   -0.0000 C   0  0  0  0  0  0  0  0  0  0  0  0
    7.6430   12.1626   -0.0000 C   0  0  0  0  0  0  0  0  0  0  0  0
   12.8252    7.6785   -0.0000 C   0  0  0  0  0  0  0  0  0  0  0  0
   11.5356    9.9265   -0.0000 C   0  0  0  0  0  0  0  0  0  0  0  0
    7.6312   13.6770   -0.0000 C   0  0  0  0  0  0  0  0  0  0  0  0
   12.8252    9.1929   -0.0000 O   0  0  0  0  0  0  0  0  0  0  0  0
    8.9208   14.4342   -0.0000 C   0  0  0  0  0  0  0  0  0  0  0  0
    6.3298   14.4342   -0.0000 C   0  0  0  0  0  0  0  0  0  0  0  0
    8.9090   15.9486   -0.0000 C   0  0  0  0  0  0  0  0  0  0  0  0
    6.3179   15.9486   -0.0000 C   0  0  0  0  0  0  0  0  0  0  0  0
    7.5957   16.7177   -0.0000 C   0  0  0  0  0  0  0  0  0  0  0  0
  1  2  1  0
  2  3  2  0
  2  4  1  0
  3  5  1  0
  3  6  1  0
  4  7  2  0
  6  8  2  0
  7  9  1  0
  8 10  1  0
  9 11  1  0
 10 12  1  0
 10 13  1  0
 12 14  2  0
 13 15  1  0
 15 16  2  0
 15 17  1  0
 18 17  1  0
 17 19  1  0
 18 20  1  0
 18 21  1  6
 20 22  2  0
 20 23  1  0
 21 24  1  0
 22 25  1  0
 23 26  2  0
 24 27  1  0
 24 28  1  0
 25 29  2  0
 27 30  1  0
 28 31  1  0
 29 32  1  0
 30 33  1  0
 32 34  2  0
 32 35  1  0
 34 36  1  0
 35 37  2  0
 36 38  2  0
  7  8  1  0
 11 12  1  0
 26 29  1  0
 31 33  1  0
 37 38  1  0
M  END
>  <MolRegNo>  (1) 
449322

>  <m>  (1) 
=

>  <Value>  (1) 
33000

>  <Unit>  (1) 
nM

>  <Type>  (1) 
IC50

>  <pValue>  (1) 
4.48

>  <Ligand Efficiency>  (1) 
0

>  <Binding Efficiency>  (1) 
0

>  <Surface Efficiency>  (1) 
0

>  <Assay Index>  (1) 
404069

>  <Assay Category>  (1) 


>  <Assay Organism>  (1) 


>  <Target ID>  (1) 
11365

>  <Target Name>  (1) 
Cytochrome P450 2D6

>  <Target Organism>  (1) 
Homo sapiens

>  <Target Description>  (1) 
Target is a single protein chain

>  <Sequence Accession>  (1) 
P10635

>  <Reference>  (1) 
Bioorg Med Chem Lett 18 (13), 3716-3719 (2008)

>  <Pubmed ID>  (1) 
18524591

>  <DOI>  (1) 
10.1016/j.bmcl.2008.05.058

$$$$
