4wnv_ligand_310
     RDKit          2D

 40 45  0  0  1  0  0  0  0  0999 V2000
    0.0000   -0.0000   -0.0000 S   0  0  0  0  0  0  0  0  0  0  0  0
   -1.0664   -1.0664   -0.0000 C   0  0  0  0  0  0  0  0  0  0  0  0
    1.3390   -0.6636   -0.0000 C   0  0  0  0  0  0  0  0  0  0  0  0
   -2.5594   -0.8294   -0.0000 C   0  0  0  0  0  0  0  0  0  0  0  0
   -0.3792   -2.3817   -0.0000 C   0  0  0  0  0  0  0  0  0  0  0  0
    2.6542    0.0474   -0.0000 C   0  0  0  0  0  0  0  0  0  0  0  0
    1.1020   -2.1328   -0.0000 C   0  0  0  0  0  0  0  0  0  0  0  0
   -3.1163    0.5806   -0.0000 C   0  0  0  0  0  0  0  0  0  0  0  0
   -3.4955   -1.9907   -0.0000 C   0  0  0  0  0  0  0  0  0  0  0  0
    2.7016    1.5641   -0.0000 O   0  0  0  0  0  0  0  0  0  0  0  0
    3.9102   -0.7465   -0.0000 N   0  0  0  0  0  0  0  0  0  0  0  0
   -4.6212    0.8176   -0.0000 C   0  0  0  0  0  0  0  0  0  0  0  0
   -4.9885   -1.7655   -0.0000 C   0  0  0  0  0  0  0  0  0  0  0  0
    5.2255   -0.0355   -0.0000 C   0  0  0  0  0  0  0  0  0  0  0  0
    3.8391   -2.2395   -0.0000 C   0  0  0  0  0  0  0  0  0  0  0  0
   -5.1781    2.2158   -0.0000 O   0  0  0  0  0  0  0  0  0  0  0  0
   -5.5691   -0.3436   -0.0000 C   0  0  0  0  0  0  0  0  0  0  0  0
    6.5644   -0.6872   -0.0000 C   0  0  0  0  0  0  0  0  0  0  0  0
    5.4388    1.4574   -0.0000 C   0  0  0  0  0  0  0  0  0  0  0  0
   -6.6711    2.4528   -0.0000 C   0  0  0  0  0  0  0  0  0  0  0  0
   -7.0621   -0.1185   -0.0000 O   0  0  0  0  0  0  0  0  0  0  0  0
    7.5953    0.4029   -0.0000 N   0  0  0  0  0  0  0  0  0  0  0  0
    6.9080    1.7181   -0.0000 C   0  0  0  0  0  0  0  0  0  0  0  0
   -7.6190    1.2916   -0.0000 C   0  0  0  0  0  0  0  0  0  0  0  0
    9.0646    0.1896   -0.0000 C   0  0  0  0  0  0  0  0  0  0  0  0
    9.9888    1.3745   -0.0000 O   0  0  0  0  0  0  0  0  0  0  0  0
    9.6096   -1.1968   -0.0000 N   0  0  0  0  0  0  0  0  0  0  0  0
   11.0552   -1.5641   -0.0000 C   0  0  0  0  0  0  0  0  0  0  0  0
    8.7921   -2.4528   -0.0000 C   0  0  0  0  0  0  0  0  0  0  0  0
   11.1500   -3.0452   -0.0000 C   0  0  0  0  0  0  0  0  0  0  0  0
    9.7400   -3.6021   -0.0000 C   0  0  0  0  0  0  0  0  0  0  0  0
   12.4060   -3.8391   -0.0000 N   0  0  0  0  0  0  0  0  0  0  0  0
   13.7213   -3.1282   -0.0000 C   0  0  0  0  0  0  0  0  0  0  0  0
   14.9892   -3.9339   -0.0000 C   0  0  0  0  0  0  0  0  0  0  0  0
   13.7687   -1.6233   -0.0000 C   0  0  0  0  0  0  0  0  0  0  0  0
   16.3044   -3.2230   -0.0000 C   0  0  0  0  0  0  0  0  0  0  0  0
   15.0958   -0.9124   -0.0000 C   0  0  0  0  0  0  0  0  0  0  0  0
   16.3637   -1.7063   -0.0000 C   0  0  0  0  0  0  0  0  0  0  0  0
   17.6434   -2.4409   -0.0000 C   0  0  0  0  0  0  0  0  0  0  0  0
   17.0983   -0.4029   -0.0000 C   0  0  0  0  0  0  0  0  0  0  0  0
  1  2  1  0
  1  3  1  0
  2  4  1  0
  2  5  2  0
  3  6  1  0
  3  7  2  0
  4  8  2  0
  4  9  1  0
  6 10  2  0
  6 11  1  0
  8 12  1  0
  9 13  2  0
 14 11  1  1
 11 15  1  0
 12 16  1  0
 12 17  2  0
 14 18  1  0
 14 19  1  0
 16 20  1  0
 17 21  1  0
 18 22  1  0
 19 23  1  0
 20 24  1  0
 22 25  1  0
 25 26  2  0
 25 27  1  0
 27 28  1  0
 27 29  1  0
 28 30  1  0
 29 31  1  0
 30 32  1  6
 32 33  1  0
 33 34  1  0
 33 35  1  0
 34 36  1  0
 35 37  1  0
 36 38  1  0
 38 39  1  0
 38 40  1  0
  5  7  1  0
 13 17  1  0
 21 24  1  0
 22 23  1  0
 30 31  1  0
 37 38  1  0
M  END
>  <MolRegNo>  (1) 
359561

>  <m>  (1) 
=

>  <Value>  (1) 
4500

>  <Unit>  (1) 
nM

>  <Type>  (1) 
IC50

>  <pValue>  (1) 
5.35

>  <Ligand Efficiency>  (1) 
0

>  <Binding Efficiency>  (1) 
0

>  <Surface Efficiency>  (1) 
0

>  <Assay Index>  (1) 
268140

>  <Assay Category>  (1) 


>  <Assay Organism>  (1) 
Homo sapiens

>  <Target ID>  (1) 
11365

>  <Target Name>  (1) 
Cytochrome P450 2D6

>  <Target Organism>  (1) 
Homo sapiens

>  <Target Description>  (1) 
Target is a single protein chain

>  <Sequence Accession>  (1) 
P10635

>  <Reference>  (1) 
Bioorg Med Chem Lett 16 (18), 4922-4930 (2006)

>  <Pubmed ID>  (1) 
16824755

>  <DOI>  (1) 
10.1016/j.bmcl.2006.06.049

$$$$
