4wnv_ligand_480
     RDKit          2D

 38 41  0  0  1  0  0  0  0  0999 V2000
    0.0000   -0.0000   -0.0000 F   0  0  0  0  0  0  0  0  0  0  0  0
    1.4931   -0.0000   -0.0000 C   0  0  0  0  0  0  0  0  0  0  0  0
    2.2278   -1.2917   -0.0000 C   0  0  0  0  0  0  0  0  0  0  0  0
    2.2397    1.3035   -0.0000 C   0  0  0  0  0  0  0  0  0  0  0  0
    3.7210   -1.2917   -0.0000 C   0  0  0  0  0  0  0  0  0  0  0  0
    3.7210    1.3154   -0.0000 C   0  0  0  0  0  0  0  0  0  0  0  0
    4.4675    0.0237   -0.0000 C   0  0  0  0  0  0  0  0  0  0  0  0
    5.9607    0.0356   -0.0000 C   0  0  0  0  0  0  0  0  0  0  0  0
    6.7072    1.3509   -0.0000 C   0  0  0  0  0  0  0  0  0  0  0  0
    8.2004    1.3628   -0.0000 C   0  0  0  0  0  0  0  0  0  0  0  0
    5.9370    2.6663   -0.0000 C   0  0  0  0  0  0  0  0  0  0  0  0
    8.9469    2.6663   -0.0000 N   0  0  0  0  0  0  0  0  0  0  0  0
    6.6835    3.9817   -0.0000 C   0  0  0  0  0  0  0  0  0  0  0  0
   10.4401    2.6663   -0.0000 C   0  0  0  0  0  0  0  0  0  0  0  0
    8.1885    3.9817   -0.0000 C   0  0  0  0  0  0  0  0  0  0  0  0
   11.1866    3.9817   -0.0000 N   0  0  0  0  0  0  0  0  0  0  0  0
   11.1748    1.3746   -0.0000 C   0  0  0  0  0  0  0  0  0  0  0  0
   10.4282    5.2971   -0.0000 C   0  0  0  0  0  0  0  0  0  0  0  0
   12.6679    1.3746   -0.0000 C   0  0  0  0  0  0  0  0  0  0  0  0
    8.9114    5.3208   -0.0000 O   0  0  0  0  0  0  0  0  0  0  0  0
   11.1748    6.6124   -0.0000 C   0  0  0  0  0  0  0  0  0  0  0  0
   13.4145    2.6900   -0.0000 N   0  0  0  0  0  0  0  0  0  0  0  0
   13.4026    0.0830   -0.0000 C   0  0  0  0  0  0  0  0  0  0  0  0
   14.9076    2.6900   -0.0000 C   0  0  0  0  0  0  0  0  0  0  0  0
   15.6423    1.3983   -0.0000 O   0  0  0  0  0  0  0  0  0  0  0  0
   15.6542    4.0054   -0.0000 N   0  0  0  0  0  0  0  0  0  0  0  0
   17.1473    4.0054   -0.0000 C   0  0  0  0  0  0  0  0  0  0  0  0
   17.8702    2.7137   -0.0000 C   0  0  0  0  0  0  0  0  0  0  0  0
   17.8820    5.3208   -0.0000 C   0  0  0  0  0  0  0  0  0  0  0  0
   19.3633    2.7137   -0.0000 C   0  0  0  0  0  0  0  0  0  0  0  0
   19.3752    5.3326   -0.0000 C   0  0  0  0  0  0  0  0  0  0  0  0
   20.1099    1.4220   -0.0000 C   0  0  0  0  0  0  0  0  0  0  0  0
   20.1099    4.0291   -0.0000 C   0  0  0  0  0  0  0  0  0  0  0  0
   21.5912    1.2680   -0.0000 N   0  0  0  0  0  0  0  0  0  0  0  0
   19.4818    0.0593   -0.0000 N   0  0  0  0  0  0  0  0  0  0  0  0
   21.8874   -0.1896   -0.0000 N   0  0  0  0  0  0  0  0  0  0  0  0
   20.5839   -0.9480   -0.0000 N   0  0  0  0  0  0  0  0  0  0  0  0
   18.0005   -0.2370   -0.0000 C   0  0  0  0  0  0  0  0  0  0  0  0
  1  2  1  0
  2  3  2  0
  2  4  1  0
  3  5  1  0
  4  6  2  0
  5  7  2  0
  7  8  1  0
  9  8  1  6
  9 10  1  0
  9 11  1  0
 10 12  1  0
 11 13  1  0
 12 14  1  0
 12 15  1  0
 14 16  1  0
 14 17  1  6
 16 18  1  0
 17 19  1  0
 18 20  2  0
 18 21  1  0
 19 22  1  0
 19 23  1  6
 22 24  1  0
 24 25  2  0
 24 26  1  0
 26 27  1  0
 27 28  2  0
 27 29  1  0
 28 30  1  0
 29 31  2  0
 30 32  1  0
 30 33  2  0
 32 34  2  0
 32 35  1  0
 34 36  1  0
 35 37  1  0
 35 38  1  0
  6  7  1  0
 13 15  1  0
 31 33  1  0
 36 37  2  0
M  END
>  <MolRegNo>  (1) 
438217

>  <m>  (1) 
=

>  <Value>  (1) 
3800

>  <Unit>  (1) 
nM

>  <Type>  (1) 
IC50

>  <pValue>  (1) 
5.42

>  <Ligand Efficiency>  (1) 
0

>  <Binding Efficiency>  (1) 
0

>  <Surface Efficiency>  (1) 
0

>  <Assay Index>  (1) 
314783

>  <Assay Category>  (1) 


>  <Assay Organism>  (1) 


>  <Target ID>  (1) 
11365

>  <Target Name>  (1) 
Cytochrome P450 2D6

>  <Target Organism>  (1) 
Homo sapiens

>  <Target Description>  (1) 
Target is a single protein chain

>  <Sequence Accession>  (1) 
P10635

>  <Reference>  (1) 
Bioorg Med Chem Lett 18 (2), 576-585 (2008)

>  <Pubmed ID>  (1) 
18096386

>  <DOI>  (1) 
10.1016/j.bmcl.2007.11.067

$$$$
