4wnv_ligand_277
     RDKit          2D

 25 28  0  0  0  0  0  0  0  0999 V2000
    0.0000   -0.0000   -0.0000 S   0  0  0  0  0  0  0  0  0  0  0  0
    1.3019   -0.7525   -0.0000 C   0  0  0  0  0  0  0  0  0  0  0  0
   -1.3139   -0.7525   -0.0000 C   0  0  0  0  0  0  0  0  0  0  0  0
    1.2900   -2.2456   -0.0000 C   0  0  0  0  0  0  0  0  0  0  0  0
    2.5919    0.0119   -0.0000 C   0  0  0  0  0  0  0  0  0  0  0  0
   -1.3378   -2.2575   -0.0000 C   0  0  0  0  0  0  0  0  0  0  0  0
   -2.6397    0.0119   -0.0000 C   0  0  0  0  0  0  0  0  0  0  0  0
    2.5800   -2.9861   -0.0000 C   0  0  0  0  0  0  0  0  0  0  0  0
   -0.0358   -2.9981   -0.0000 C   0  0  0  0  0  0  0  0  0  0  0  0
    3.8820   -0.7286   -0.0000 C   0  0  0  0  0  0  0  0  0  0  0  0
   -2.6517   -2.9981   -0.0000 C   0  0  0  0  0  0  0  0  0  0  0  0
   -3.9536   -0.7406   -0.0000 C   0  0  0  0  0  0  0  0  0  0  0  0
    3.8700   -2.2217   -0.0000 C   0  0  0  0  0  0  0  0  0  0  0  0
   -0.0597   -4.4911   -0.0000 C   0  0  0  0  0  0  0  0  0  0  0  0
   -3.9656   -2.2336   -0.0000 C   0  0  0  0  0  0  0  0  0  0  0  0
    1.2422   -5.2317   -0.0000 C   0  0  0  0  0  0  0  0  0  0  0  0
    1.2303   -6.7247   -0.0000 N   0  0  0  0  0  0  0  0  0  0  0  0
    2.5203   -7.4653   -0.0000 C   0  0  0  0  0  0  0  0  0  0  0  0
    2.5083   -8.9583   -0.0000 C   0  0  0  0  0  0  0  0  0  0  0  0
    3.7983   -9.6989   -0.0000 C   0  0  0  0  0  0  0  0  0  0  0  0
    5.0883   -8.9345   -0.0000 C   0  0  0  0  0  0  0  0  0  0  0  0
    3.7864  -11.1920   -0.0000 C   0  0  0  0  0  0  0  0  0  0  0  0
    6.3783   -9.6750   -0.0000 C   0  0  0  0  0  0  0  0  0  0  0  0
    5.0764  -11.9325   -0.0000 C   0  0  0  0  0  0  0  0  0  0  0  0
    6.3783  -11.1800   -0.0000 C   0  0  0  0  0  0  0  0  0  0  0  0
  1  2  1  0
  1  3  1  0
  2  4  2  0
  2  5  1  0
  3  6  2  0
  3  7  1  0
  4  8  1  0
  4  9  1  0
  5 10  2  0
  6 11  1  0
  7 12  2  0
  8 13  2  0
  9 14  1  0
 11 15  2  0
 14 16  1  0
 16 17  1  0
 17 18  1  0
 18 19  1  0
 19 20  1  0
 20 21  2  0
 20 22  1  0
 21 23  1  0
 22 24  2  0
 23 25  2  0
  6  9  1  0
 10 13  1  0
 12 15  1  0
 24 25  1  0
M  END
>  <MolRegNo>  (1) 
1153678

>  <m>  (1) 
=

>  <Value>  (1) 
260

>  <Unit>  (1) 
nM

>  <Type>  (1) 
IC50

>  <pValue>  (1) 
6.58

>  <Ligand Efficiency>  (1) 
0

>  <Binding Efficiency>  (1) 
0

>  <Surface Efficiency>  (1) 
0

>  <Assay Index>  (1) 
259863

>  <Assay Category>  (1) 


>  <Assay Organism>  (1) 
Homo sapiens

>  <Target ID>  (1) 
11365

>  <Target Name>  (1) 
Cytochrome P450 2D6

>  <Target Organism>  (1) 
Homo sapiens

>  <Target Description>  (1) 
Target is a single protein chain

>  <Sequence Accession>  (1) 
P10635

>  <Reference>  (1) 
J Med Chem 49 (8), 2417-2430 (2006)

>  <Pubmed ID>  (1) 
16610785

>  <DOI>  (1) 
10.1021/jm0508538

$$$$
