4wnv_ligand_339
     RDKit          2D

 29 31  0  0  1  0  0  0  0  0999 V2000
    0.0000   -0.0000   -0.0000 O   0  0  0  0  0  0  0  0  0  0  0  0
   -0.0119   -1.4872   -0.0000 C   0  0  0  0  0  0  0  0  0  0  0  0
    1.2730   -2.2248   -0.0000 N   0  0  0  0  0  0  0  0  0  0  0  0
   -1.3206   -2.2248   -0.0000 C   0  0  0  0  0  0  0  0  0  0  0  0
    2.5580   -1.4634   -0.0000 C   0  0  0  0  0  0  0  0  0  0  0  0
    1.2611   -3.7120   -0.0000 C   0  0  0  0  0  0  0  0  0  0  0  0
   -2.6293   -1.4634   -0.0000 C   0  0  0  0  0  0  0  0  0  0  0  0
    2.5461    0.0476   -0.0000 C   0  0  0  0  0  0  0  0  0  0  0  0
    3.8429   -2.2010   -0.0000 C   0  0  0  0  0  0  0  0  0  0  0  0
   -3.9381   -2.2010   -0.0000 C   0  0  0  0  0  0  0  0  0  0  0  0
    1.2373    0.8090   -0.0000 C   0  0  0  0  0  0  0  0  0  0  0  0
    3.8429    0.8090   -0.0000 C   0  0  0  0  0  0  0  0  0  0  0  0
    5.1278   -1.4396   -0.0000 N   0  0  0  0  0  0  0  0  0  0  0  0
   -3.9500   -3.6882   -0.0000 O   0  0  0  0  0  0  0  0  0  0  0  0
   -5.2468   -1.4396   -0.0000 N   0  0  0  0  0  0  0  0  0  0  0  0
    1.2254    2.3200   -0.0000 C   0  0  0  0  0  0  0  0  0  0  0  0
    3.8310    2.3319   -0.0000 C   0  0  0  0  0  0  0  0  0  0  0  0
    6.4841   -2.0345   -0.0000 C   0  0  0  0  0  0  0  0  0  0  0  0
    5.2706    0.0714   -0.0000 C   0  0  0  0  0  0  0  0  0  0  0  0
   -6.5555   -2.1772   -0.0000 C   0  0  0  0  0  0  0  0  0  0  0  0
    2.5104    3.0814   -0.0000 C   0  0  0  0  0  0  0  0  0  0  0  0
    7.4716   -0.9042   -0.0000 C   0  0  0  0  0  0  0  0  0  0  0  0
    6.7221    0.3926   -0.0000 C   0  0  0  0  0  0  0  0  0  0  0  0
   -7.8642   -1.4039   -0.0000 C   0  0  0  0  0  0  0  0  0  0  0  0
   -6.5555   -3.6525   -0.0000 C   0  0  0  0  0  0  0  0  0  0  0  0
    8.9469   -1.0470   -0.0000 O   0  0  0  0  0  0  0  0  0  0  0  0
   -9.1729   -2.1415   -0.0000 C   0  0  0  0  0  0  0  0  0  0  0  0
   -7.8642   -4.3902   -0.0000 C   0  0  0  0  0  0  0  0  0  0  0  0
   -9.1848   -3.6287   -0.0000 C   0  0  0  0  0  0  0  0  0  0  0  0
  1  2  2  0
  2  3  1  0
  2  4  1  0
  5  3  1  0
  3  6  1  0
  4  7  1  0
  5  8  1  0
  5  9  1  1
  7 10  1  0
  8 11  2  0
  8 12  1  0
  9 13  1  0
 10 14  2  0
 10 15  1  0
 11 16  1  0
 12 17  2  0
 13 18  1  0
 13 19  1  0
 15 20  1  0
 16 21  2  0
 18 22  1  0
 19 23  1  0
 20 24  2  0
 20 25  1  0
 22 26  1  6
 24 27  1  0
 25 28  2  0
 27 29  2  0
 17 21  1  0
 22 23  1  0
 28 29  1  0
M  END
>  <MolRegNo>  (1) 
384331

>  <m>  (1) 
=

>  <Value>  (1) 
8600

>  <Unit>  (1) 
nM

>  <Type>  (1) 
IC50

>  <pValue>  (1) 
5.07

>  <Ligand Efficiency>  (1) 
0

>  <Binding Efficiency>  (1) 
0

>  <Surface Efficiency>  (1) 
0

>  <Assay Index>  (1) 
287299

>  <Assay Category>  (1) 


>  <Assay Organism>  (1) 


>  <Target ID>  (1) 
11365

>  <Target Name>  (1) 
Cytochrome P450 2D6

>  <Target Organism>  (1) 
Homo sapiens

>  <Target Description>  (1) 
Target is a single protein chain

>  <Sequence Accession>  (1) 
P10635

>  <Reference>  (1) 
Bioorg Med Chem Lett 17 (7), 1951-1955 (2007)

>  <Pubmed ID>  (1) 
17307360

>  <DOI>  (1) 
10.1016/j.bmcl.2007.01.053

$$$$
