4wnv_ligand_163
     RDKit          2D

 24 27  0  0  0  0  0  0  0  0999 V2000
    0.0000   -0.0000   -0.0000 O   0  0  0  0  0  0  0  0  0  0  0  0
    1.2913    0.7533   -0.0000 N   0  0  0  0  0  0  0  0  0  0  0  0
    2.5827    0.0359   -0.0000 O   0  0  0  0  0  0  0  0  0  0  0  0
    1.2794    2.2718   -0.0000 C   0  0  0  0  0  0  0  0  0  0  0  0
   -0.0359    3.0371   -0.0000 C   0  0  0  0  0  0  0  0  0  0  0  0
    2.5468    3.0371   -0.0000 C   0  0  0  0  0  0  0  0  0  0  0  0
   -1.3511    2.2957   -0.0000 O   0  0  0  0  0  0  0  0  0  0  0  0
   -0.0478    4.5317   -0.0000 C   0  0  0  0  0  0  0  0  0  0  0  0
    2.5349    4.5317   -0.0000 C   0  0  0  0  0  0  0  0  0  0  0  0
    3.8382    2.2838   -0.0000 C   0  0  0  0  0  0  0  0  0  0  0  0
   -2.6664    3.0371   -0.0000 C   0  0  0  0  0  0  0  0  0  0  0  0
    1.2435    5.2850   -0.0000 C   0  0  0  0  0  0  0  0  0  0  0  0
    3.8262    5.2850   -0.0000 C   0  0  0  0  0  0  0  0  0  0  0  0
    5.1295    3.0490   -0.0000 C   0  0  0  0  0  0  0  0  0  0  0  0
    5.0936    4.5675   -0.0000 C   0  0  0  0  0  0  0  0  0  0  0  0
    3.8143    6.8035   -0.0000 C   0  0  0  0  0  0  0  0  0  0  0  0
    6.3850    5.3328   -0.0000 C   0  0  0  0  0  0  0  0  0  0  0  0
    5.0817    7.5687   -0.0000 C   0  0  0  0  0  0  0  0  0  0  0  0
    6.3730    6.8274   -0.0000 C   0  0  0  0  0  0  0  0  0  0  0  0
    7.8079    4.8665   -0.0000 C   0  0  0  0  0  0  0  0  0  0  0  0
    7.7959    7.2937   -0.0000 C   0  0  0  0  0  0  0  0  0  0  0  0
    6.3611    8.3579   -0.0000 C   0  0  0  0  0  0  0  0  0  0  0  0
    8.6807    6.0861   -0.0000 C   0  0  0  0  0  0  0  0  0  0  0  0
    8.2383    8.7644   -0.0000 O   0  0  0  0  0  0  0  0  0  0  0  0
  1  2  2  0
  2  3  1  0
  2  4  1  0
  4  5  2  0
  4  6  1  0
  5  7  1  0
  5  8  1  0
  6  9  2  0
  6 10  1  0
  7 11  1  0
  8 12  2  0
  9 13  1  0
 10 14  1  0
 13 15  1  0
 13 16  1  1
 15 17  1  0
 16 18  1  0
 17 19  1  0
 17 20  1  1
 19 21  1  0
 19 22  1  1
 20 23  1  0
 21 24  2  0
  9 12  1  0
 15 14  1  6
 18 19  1  0
 21 23  1  0
M  CHG  2   2   1   3  -1
M  END
>  <MolRegNo>  (1) 
66218

>  <m>  (1) 
=

>  <Value>  (1) 
196000

>  <Unit>  (1) 
nM

>  <Type>  (1) 
IC50

>  <pValue>  (1) 
0

>  <Ligand Efficiency>  (1) 
0

>  <Binding Efficiency>  (1) 
0

>  <Surface Efficiency>  (1) 
0

>  <Assay Index>  (1) 
237541

>  <Assay Category>  (1) 


>  <Assay Organism>  (1) 


>  <Target ID>  (1) 
11365

>  <Target Name>  (1) 
Cytochrome P450 2D6

>  <Target Organism>  (1) 
Homo sapiens

>  <Target Description>  (1) 
Target is a single protein chain

>  <Sequence Accession>  (1) 
P10635

>  <Reference>  (1) 
J Med Chem 47 (22), 5340-5346 (2004)

>  <Pubmed ID>  (1) 
15481972

>  <DOI>  (1) 
10.1021/jm049934e

$$$$
