4wnv_ligand_183
     RDKit          2D

 24 26  0  0  1  0  0  0  0  0999 V2000
    0.0000   -0.0000   -0.0000 O   0  0  0  0  0  0  0  0  0  0  0  0
   -0.0119    1.5056   -0.0000 C   0  0  0  0  0  0  0  0  0  0  0  0
   -1.3144    2.2703   -0.0000 N   0  0  0  0  0  0  0  0  0  0  0  0
    1.2786    2.2703   -0.0000 C   0  0  0  0  0  0  0  0  0  0  0  0
   -2.6169    1.5295   -0.0000 C   0  0  0  0  0  0  0  0  0  0  0  0
   -1.3264    3.7879   -0.0000 C   0  0  0  0  0  0  0  0  0  0  0  0
    2.5571    1.5534   -0.0000 C   0  0  0  0  0  0  0  0  0  0  0  0
   -3.7042    2.6288   -0.0000 C   0  0  0  0  0  0  0  0  0  0  0  0
   -2.6527    0.0717   -0.0000 C   0  0  0  0  0  0  0  0  0  0  0  0
    2.5452    0.0478   -0.0000 C   0  0  0  0  0  0  0  0  0  0  0  0
    3.8357    2.3181   -0.0000 C   0  0  0  0  0  0  0  0  0  0  0  0
   -5.1859    2.2345   -0.0000 C   0  0  0  0  0  0  0  0  0  0  0  0
   -3.3338    4.0866   -0.0000 C   0  0  0  0  0  0  0  0  0  0  0  0
   -1.9358   -1.2308   -0.0000 N   0  0  0  0  0  0  0  0  0  0  0  0
    3.8237   -0.6930   -0.0000 C   0  0  0  0  0  0  0  0  0  0  0  0
    5.1262    1.5773   -0.0000 C   0  0  0  0  0  0  0  0  0  0  0  0
   -6.2733    3.3099   -0.0000 C   0  0  0  0  0  0  0  0  0  0  0  0
   -4.4092    5.1620   -0.0000 C   0  0  0  0  0  0  0  0  0  0  0  0
   -2.5452   -2.5571   -0.0000 C   0  0  0  0  0  0  0  0  0  0  0  0
   -0.4660   -1.3622   -0.0000 C   0  0  0  0  0  0  0  0  0  0  0  0
    5.1142    0.0717   -0.0000 C   0  0  0  0  0  0  0  0  0  0  0  0
   -5.8909    4.8036   -0.0000 C   0  0  0  0  0  0  0  0  0  0  0  0
   -1.4578   -3.5489   -0.0000 C   0  0  0  0  0  0  0  0  0  0  0  0
   -0.1553   -2.8200   -0.0000 C   0  0  0  0  0  0  0  0  0  0  0  0
  1  2  2  0
  2  3  1  0
  2  4  1  0
  5  3  1  0
  3  6  1  0
  4  7  1  0
  5  8  1  0
  5  9  1  6
  7 10  2  0
  7 11  1  0
  8 12  2  0
  8 13  1  0
  9 14  1  0
 10 15  1  0
 11 16  2  0
 12 17  1  0
 13 18  2  0
 14 19  1  0
 14 20  1  0
 15 21  2  0
 17 22  2  0
 19 23  1  0
 20 24  1  0
 16 21  1  0
 18 22  1  0
 23 24  1  0
M  END
>  <MolRegNo>  (1) 
158347

>  <m>  (1) 
=

>  <Value>  (1) 
46

>  <Unit>  (1) 
nM

>  <Type>  (1) 
IC50

>  <pValue>  (1) 
7.34

>  <Ligand Efficiency>  (1) 
0

>  <Binding Efficiency>  (1) 
0

>  <Surface Efficiency>  (1) 
0

>  <Assay Index>  (1) 
238842

>  <Assay Category>  (1) 


>  <Assay Organism>  (1) 
Homo sapiens

>  <Target ID>  (1) 
11365

>  <Target Name>  (1) 
Cytochrome P450 2D6

>  <Target Organism>  (1) 
Homo sapiens

>  <Target Description>  (1) 
Target is a single protein chain

>  <Sequence Accession>  (1) 
P10635

>  <Reference>  (1) 
Bioorg Med Chem Lett 15 (10), 2647-2652 (2005)

>  <Pubmed ID>  (1) 
15863335

>  <DOI>  (1) 
10.1016/j.bmcl.2005.03.020

$$$$
