4wnv_ligand_567
     RDKit          2D

 21 23  0  0  0  0  0  0  0  0999 V2000
    0.0000   -0.0000   -0.0000 O   0  0  0  0  0  0  0  0  0  0  0  0
   -1.3005    0.7567   -0.0000 C   0  0  0  0  0  0  0  0  0  0  0  0
    1.2887    0.7567   -0.0000 C   0  0  0  0  0  0  0  0  0  0  0  0
   -1.3124    2.2700   -0.0000 C   0  0  0  0  0  0  0  0  0  0  0  0
   -2.6011    0.0118   -0.0000 C   0  0  0  0  0  0  0  0  0  0  0  0
    1.2769    2.2700   -0.0000 C   0  0  0  0  0  0  0  0  0  0  0  0
   -2.6247    3.0267   -0.0000 C   0  0  0  0  0  0  0  0  0  0  0  0
   -0.0355    3.0385   -0.0000 C   0  0  0  0  0  0  0  0  0  0  0  0
   -3.9134    0.7685   -0.0000 C   0  0  0  0  0  0  0  0  0  0  0  0
    2.5656    3.0267   -0.0000 C   0  0  0  0  0  0  0  0  0  0  0  0
   -3.9252    2.2937   -0.0000 C   0  0  0  0  0  0  0  0  0  0  0  0
   -0.0473    4.5400   -0.0000 O   0  0  0  0  0  0  0  0  0  0  0  0
    3.8425    2.2937   -0.0000 N   0  0  0  0  0  0  0  0  0  0  0  0
    1.2414    5.2967   -0.0000 C   0  0  0  0  0  0  0  0  0  0  0  0
    5.1312    3.0503   -0.0000 C   0  0  0  0  0  0  0  0  0  0  0  0
    1.2178    6.7982   -0.0000 C   0  0  0  0  0  0  0  0  0  0  0  0
    2.5183    4.5519   -0.0000 C   0  0  0  0  0  0  0  0  0  0  0  0
    2.4947    7.5549   -0.0000 C   0  0  0  0  0  0  0  0  0  0  0  0
   -0.0946    7.5549   -0.0000 C   0  0  0  0  0  0  0  0  0  0  0  0
    3.7952    5.3085   -0.0000 C   0  0  0  0  0  0  0  0  0  0  0  0
    3.7834    6.8219   -0.0000 C   0  0  0  0  0  0  0  0  0  0  0  0
  1  2  1  0
  1  3  1  0
  2  4  2  0
  2  5  1  0
  3  6  1  0
  4  7  1  0
  4  8  1  0
  5  9  2  0
  6 10  1  6
  7 11  2  0
  8 12  1  1
 10 13  1  0
 12 14  1  0
 13 15  1  0
 14 16  2  0
 14 17  1  0
 16 18  1  0
 16 19  1  0
 17 20  2  0
 18 21  2  0
  6  8  1  0
  9 11  1  0
 20 21  1  0
M  END
>  <MolRegNo>  (1) 
511342

>  <m>  (1) 
=

>  <Value>  (1) 
5800

>  <Unit>  (1) 
nM

>  <Type>  (1) 
IC50

>  <pValue>  (1) 
5.24

>  <Ligand Efficiency>  (1) 
0

>  <Binding Efficiency>  (1) 
0

>  <Surface Efficiency>  (1) 
0

>  <Assay Index>  (1) 
358939

>  <Assay Category>  (1) 


>  <Assay Organism>  (1) 


>  <Target ID>  (1) 
11365

>  <Target Name>  (1) 
Cytochrome P450 2D6

>  <Target Organism>  (1) 
Homo sapiens

>  <Target Description>  (1) 
Target is a single protein chain

>  <Sequence Accession>  (1) 
P10635

>  <Reference>  (1) 
Bioorg Med Chem Lett 18 (16), 4491-4494 (2008)

>  <Pubmed ID>  (1) 
18672364

>  <DOI>  (1) 
10.1016/j.bmcl.2008.07.049

$$$$
