4wnv_ligand_132
     RDKit          2D

 27 29  0  0  0  0  0  0  0  0999 V2000
    0.0000   -0.0000   -0.0000 O   0  0  0  0  0  0  0  0  0  0  0  0
    0.0000   -1.4925   -0.0000 C   0  0  0  0  0  0  0  0  0  0  0  0
    1.2879    0.7703   -0.0000 C   0  0  0  0  0  0  0  0  0  0  0  0
   -1.3120   -2.2388   -0.0000 C   0  0  0  0  0  0  0  0  0  0  0  0
    1.2879   -2.2388   -0.0000 C   0  0  0  0  0  0  0  0  0  0  0  0
    2.5638    0.0241   -0.0000 C   0  0  0  0  0  0  0  0  0  0  0  0
   -1.3240   -3.7313   -0.0000 C   0  0  0  0  0  0  0  0  0  0  0  0
   -2.6240   -1.4685   -0.0000 C   0  0  0  0  0  0  0  0  0  0  0  0
    1.2759   -3.7313   -0.0000 C   0  0  0  0  0  0  0  0  0  0  0  0
    2.5517   -1.4685   -0.0000 O   0  0  0  0  0  0  0  0  0  0  0  0
    3.8637    0.8064   -0.0000 C   0  0  0  0  0  0  0  0  0  0  0  0
   -0.0361   -4.4776   -0.0000 C   0  0  0  0  0  0  0  0  0  0  0  0
   -4.0924   -1.8416   -0.0000 C   0  0  0  0  0  0  0  0  0  0  0  0
    5.1516    0.0602   -0.0000 N   0  0  0  0  0  0  0  0  0  0  0  0
    6.4395    0.8305   -0.0000 C   0  0  0  0  0  0  0  0  0  0  0  0
    7.7274    1.6009   -0.0000 C   0  0  0  0  0  0  0  0  0  0  0  0
    7.7274    0.0843   -0.0000 C   0  0  0  0  0  0  0  0  0  0  0  0
    7.1617    2.1666   -0.0000 C   0  0  0  0  0  0  0  0  0  0  0  0
    9.1598    1.2277   -0.0000 C   0  0  0  0  0  0  0  0  0  0  0  0
   10.5440    1.8295   -0.0000 N   0  0  0  0  0  0  0  0  0  0  0  0
    9.2801   -0.2648   -0.0000 C   0  0  0  0  0  0  0  0  0  0  0  0
   11.5189    0.7102   -0.0000 C   0  0  0  0  0  0  0  0  0  0  0  0
   10.7245   -0.5898   -0.0000 C   0  0  0  0  0  0  0  0  0  0  0  0
   13.0114    0.7102   -0.0000 C   0  0  0  0  0  0  0  0  0  0  0  0
   11.4467   -1.8897   -0.0000 C   0  0  0  0  0  0  0  0  0  0  0  0
   13.7577   -0.6018   -0.0000 C   0  0  0  0  0  0  0  0  0  0  0  0
   12.9633   -1.9018   -0.0000 C   0  0  0  0  0  0  0  0  0  0  0  0
  1  2  1  0
  1  3  1  0
  2  4  2  0
  2  5  1  0
  3  6  1  0
  4  7  1  0
  4  8  1  0
  5  9  2  0
  6 10  1  0
  6 11  1  0
  7 12  2  0
  8 13  1  0
 11 14  1  0
 14 15  1  0
 15 16  1  0
 15 17  1  0
 15 18  1  0
 16 19  1  0
 19 20  1  0
 19 21  2  0
 20 22  1  0
 21 23  1  0
 22 24  2  0
 23 25  2  0
 24 26  1  0
 25 27  1  0
  9 12  1  0
 22 23  1  0
 26 27  2  0
M  END
>  <MolRegNo>  (1) 
301290

>  <m>  (1) 
=

>  <Value>  (1) 
120

>  <Unit>  (1) 
nM

>  <Type>  (1) 
IC50

>  <pValue>  (1) 
6.92

>  <Ligand Efficiency>  (1) 
0

>  <Binding Efficiency>  (1) 
0

>  <Surface Efficiency>  (1) 
0

>  <Assay Index>  (1) 
238811

>  <Assay Category>  (1) 


>  <Assay Organism>  (1) 
Homo sapiens

>  <Target ID>  (1) 
11365

>  <Target Name>  (1) 
Cytochrome P450 2D6

>  <Target Organism>  (1) 
Homo sapiens

>  <Target Description>  (1) 
Target is a single protein chain

>  <Sequence Accession>  (1) 
P10635

>  <Reference>  (1) 
Bioorg Med Chem Lett 15 (17), 3816-3820 (2005)

>  <Pubmed ID>  (1) 
15993593

>  <DOI>  (1) 
10.1016/j.bmcl.2005.06.007

$$$$
