4wnv_ligand_907
     RDKit          2D

 26 28  0  0  0  0  0  0  0  0999 V2000
    0.0000   -0.0000   -0.0000 Cl  0  0  0  0  0  0  0  0  0  0  0  0
   -0.0119    1.5111   -0.0000 C   0  0  0  0  0  0  0  0  0  0  0  0
   -1.3207    2.2726   -0.0000 C   0  0  0  0  0  0  0  0  0  0  0  0
    1.2850    2.2726   -0.0000 C   0  0  0  0  0  0  0  0  0  0  0  0
   -2.6295    1.5349   -0.0000 C   0  0  0  0  0  0  0  0  0  0  0  0
   -1.3326    3.7836   -0.0000 C   0  0  0  0  0  0  0  0  0  0  0  0
    1.2731    3.7955   -0.0000 C   0  0  0  0  0  0  0  0  0  0  0  0
   -3.9383    0.7972   -0.0000 N   0  0  0  0  0  0  0  0  0  0  0  0
   -0.0476    4.5451   -0.0000 C   0  0  0  0  0  0  0  0  0  0  0  0
    2.5581    4.5570   -0.0000 N   0  0  0  0  0  0  0  0  0  0  0  0
    3.8431    3.8193   -0.0000 C   0  0  0  0  0  0  0  0  0  0  0  0
    2.5462    6.0681   -0.0000 C   0  0  0  0  0  0  0  0  0  0  0  0
    3.9978    2.3321   -0.0000 C   0  0  0  0  0  0  0  0  0  0  0  0
    5.2114    4.4380   -0.0000 C   0  0  0  0  0  0  0  0  0  0  0  0
    3.8312    6.8296   -0.0000 C   0  0  0  0  0  0  0  0  0  0  0  0
    5.4494    2.0346   -0.0000 N   0  0  0  0  0  0  0  0  0  0  0  0
    6.2109    3.3434   -0.0000 C   0  0  0  0  0  0  0  0  0  0  0  0
    5.1162    6.0919   -0.0000 C   0  0  0  0  0  0  0  0  0  0  0  0
    3.8074    8.3288   -0.0000 C   0  0  0  0  0  0  0  0  0  0  0  0
    6.0443    0.6782   -0.0000 S   0  0  0  0  0  0  0  0  0  0  0  0
    6.4012    6.8534   -0.0000 C   0  0  0  0  0  0  0  0  0  0  0  0
    5.0805    9.1021   -0.0000 C   0  0  0  0  0  0  0  0  0  0  0  0
    5.2709   -0.6068   -0.0000 O   0  0  0  0  0  0  0  0  0  0  0  0
    4.5332    0.7020   -0.0000 O   0  0  0  0  0  0  0  0  0  0  0  0
    7.5316    0.5354   -0.0000 C   0  0  0  0  0  0  0  0  0  0  0  0
    6.3893    8.3644   -0.0000 C   0  0  0  0  0  0  0  0  0  0  0  0
  1  2  1  0
  2  3  2  0
  2  4  1  0
  3  5  1  0
  3  6  1  0
  4  7  2  0
  5  8  3  0
  6  9  2  0
  7 10  1  0
 11 10  1  1
 10 12  1  0
 11 13  1  0
 11 14  1  0
 12 15  1  0
 13 16  1  0
 14 17  1  0
 15 18  2  0
 15 19  1  0
 16 20  1  0
 18 21  1  0
 19 22  2  0
 20 23  2  0
 20 24  2  0
 20 25  1  0
 21 26  2  0
  7  9  1  0
 16 17  1  0
 22 26  1  0
M  END
>  <MolRegNo>  (1) 
590192

>  <m>  (1) 
=

>  <Value>  (1) 
14000

>  <Unit>  (1) 
nM

>  <Type>  (1) 
IC50

>  <pValue>  (1) 
4.85

>  <Ligand Efficiency>  (1) 
0

>  <Binding Efficiency>  (1) 
0

>  <Surface Efficiency>  (1) 
0

>  <Assay Index>  (1) 
452357

>  <Assay Category>  (1) 


>  <Assay Organism>  (1) 


>  <Target ID>  (1) 
11365

>  <Target Name>  (1) 
Cytochrome P450 2D6

>  <Target Organism>  (1) 
Homo sapiens

>  <Target Description>  (1) 
Target is a single protein chain

>  <Sequence Accession>  (1) 
P10635

>  <Reference>  (1) 
Bioorg Med Chem Lett 20 (1), 371-374 (2010)

>  <Pubmed ID>  (1) 
19926282

>  <DOI>  (1) 
10.1016/j.bmcl.2009.10.092

$$$$
