4wnv_ligand_215
     RDKit          2D

 27 30  0  0  1  0  0  0  0  0999 V2000
    0.0000   -0.0000   -0.0000 O   0  0  0  0  0  0  0  0  0  0  0  0
   -0.0119   -1.4887   -0.0000 C   0  0  0  0  0  0  0  0  0  0  0  0
    1.2744   -2.2272   -0.0000 N   0  0  0  0  0  0  0  0  0  0  0  0
   -1.3220   -2.2272   -0.0000 C   0  0  0  0  0  0  0  0  0  0  0  0
    2.5606   -1.4649   -0.0000 C   0  0  0  0  0  0  0  0  0  0  0  0
    1.2625   -3.7159   -0.0000 C   0  0  0  0  0  0  0  0  0  0  0  0
   -2.7036   -1.5959   -0.0000 O   0  0  0  0  0  0  0  0  0  0  0  0
   -1.4887   -3.7040   -0.0000 C   0  0  0  0  0  0  0  0  0  0  0  0
    2.5487    0.0476   -0.0000 C   0  0  0  0  0  0  0  0  0  0  0  0
    3.8469   -2.2033   -0.0000 C   0  0  0  0  0  0  0  0  0  0  0  0
   -3.7159   -2.7036   -0.0000 C   0  0  0  0  0  0  0  0  0  0  0  0
   -2.9656   -4.0017   -0.0000 C   0  0  0  0  0  0  0  0  0  0  0  0
    1.2386    0.8099   -0.0000 C   0  0  0  0  0  0  0  0  0  0  0  0
    3.8469    0.8099   -0.0000 C   0  0  0  0  0  0  0  0  0  0  0  0
    5.1332   -1.4411   -0.0000 N   0  0  0  0  0  0  0  0  0  0  0  0
   -5.2166   -2.6917   -0.0000 C   0  0  0  0  0  0  0  0  0  0  0  0
   -3.7159   -5.2761   -0.0000 C   0  0  0  0  0  0  0  0  0  0  0  0
    1.2267    2.3344   -0.0000 C   0  0  0  0  0  0  0  0  0  0  0  0
    3.8350    2.3344   -0.0000 C   0  0  0  0  0  0  0  0  0  0  0  0
    6.4909   -2.0366   -0.0000 C   0  0  0  0  0  0  0  0  0  0  0  0
    5.2761    0.0715   -0.0000 C   0  0  0  0  0  0  0  0  0  0  0  0
   -5.9788   -3.9779   -0.0000 C   0  0  0  0  0  0  0  0  0  0  0  0
   -5.2166   -5.2642   -0.0000 C   0  0  0  0  0  0  0  0  0  0  0  0
    2.5130    3.0966   -0.0000 C   0  0  0  0  0  0  0  0  0  0  0  0
    7.4795   -0.9052   -0.0000 C   0  0  0  0  0  0  0  0  0  0  0  0
    6.7291    0.3930   -0.0000 C   0  0  0  0  0  0  0  0  0  0  0  0
    8.9563   -1.0481   -0.0000 O   0  0  0  0  0  0  0  0  0  0  0  0
  1  2  2  0
  2  3  1  0
  4  2  1  6
  5  3  1  0
  3  6  1  0
  4  7  1  0
  4  8  1  0
  5  9  1  0
  5 10  1  1
  7 11  1  0
  8 12  1  0
  9 13  2  0
  9 14  1  0
 10 15  1  0
 11 16  2  0
 12 17  2  0
 13 18  1  0
 14 19  2  0
 15 20  1  0
 15 21  1  0
 16 22  1  0
 17 23  1  0
 18 24  2  0
 20 25  1  0
 21 26  1  0
 25 27  1  6
 11 12  1  0
 19 24  1  0
 22 23  2  0
 25 26  1  0
M  END
>  <MolRegNo>  (1) 
331929

>  <m>  (1) 
=

>  <Value>  (1) 
760

>  <Unit>  (1) 
nM

>  <Type>  (1) 
IC50

>  <pValue>  (1) 
6.12

>  <Ligand Efficiency>  (1) 
0

>  <Binding Efficiency>  (1) 
0

>  <Surface Efficiency>  (1) 
0

>  <Assay Index>  (1) 
253815

>  <Assay Category>  (1) 


>  <Assay Organism>  (1) 
Homo sapiens

>  <Target ID>  (1) 
11365

>  <Target Name>  (1) 
Cytochrome P450 2D6

>  <Target Organism>  (1) 
Homo sapiens

>  <Target Description>  (1) 
Target is a single protein chain

>  <Sequence Accession>  (1) 
P10635

>  <Reference>  (1) 
Bioorg Med Chem Lett 15 (23), 5114-5119 (2005)

>  <Pubmed ID>  (1) 
16203140

>  <DOI>  (1) 
10.1016/j.bmcl.2005.08.094

$$$$
