4wnv_ligand_747
     RDKit          2D

 22 24  0  0  0  0  0  0  0  0999 V2000
    0.0000   -0.0000   -0.0000 S   0  0  0  0  0  0  0  0  0  0  0  0
    1.0009   -1.0962   -0.0000 C   0  0  0  0  0  0  0  0  0  0  0  0
    0.4409    1.4418   -0.0000 C   0  0  0  0  0  0  0  0  0  0  0  0
    0.5362   -2.5023   -0.0000 C   0  0  0  0  0  0  0  0  0  0  0  0
    2.4546   -0.7626   -0.0000 C   0  0  0  0  0  0  0  0  0  0  0  0
   -0.9413   -2.8002   -0.0000 O   0  0  0  0  0  0  0  0  0  0  0  0
    1.5252   -3.6104   -0.0000 C   0  0  0  0  0  0  0  0  0  0  0  0
    3.4555   -1.8708   -0.0000 C   0  0  0  0  0  0  0  0  0  0  0  0
   -1.4180   -4.2181   -0.0000 C   0  0  0  0  0  0  0  0  0  0  0  0
    2.9789   -3.2887   -0.0000 C   0  0  0  0  0  0  0  0  0  0  0  0
   -2.8717   -4.6709   -0.0000 C   0  0  0  0  0  0  0  0  0  0  0  0
   -0.5362   -5.4335   -0.0000 C   0  0  0  0  0  0  0  0  0  0  0  0
   -2.8836   -6.1723   -0.0000 C   0  0  0  0  0  0  0  0  0  0  0  0
   -4.1824   -3.9083   -0.0000 C   0  0  0  0  0  0  0  0  0  0  0  0
    0.5124   -4.3492   -0.0000 O   0  0  0  0  0  0  0  0  0  0  0  0
   -1.4418   -6.6489   -0.0000 C   0  0  0  0  0  0  0  0  0  0  0  0
    0.7507   -6.1723   -0.0000 C   0  0  0  0  0  0  0  0  0  0  0  0
   -4.1943   -6.9111   -0.0000 C   0  0  0  0  0  0  0  0  0  0  0  0
   -5.4931   -4.6471   -0.0000 C   0  0  0  0  0  0  0  0  0  0  0  0
    0.7388   -7.6618   -0.0000 N   0  0  0  0  0  0  0  0  0  0  0  0
   -5.5050   -6.1485   -0.0000 C   0  0  0  0  0  0  0  0  0  0  0  0
    2.0257   -8.4005   -0.0000 C   0  0  0  0  0  0  0  0  0  0  0  0
  1  2  1  0
  1  3  1  0
  2  4  2  0
  2  5  1  0
  4  6  1  0
  4  7  1  0
  5  8  2  0
  9  6  1  6
  7 10  2  0
  9 11  1  0
  9 12  1  0
 11 13  2  0
 11 14  1  0
 12 15  1  1
 12 16  1  0
 12 17  1  0
 13 18  1  0
 14 19  2  0
 17 20  1  0
 18 21  2  0
 20 22  1  0
  8 10  1  0
 13 16  1  0
 19 21  1  0
M  END
>  <MolRegNo>  (1) 
452365

>  <m>  (1) 
=

>  <Value>  (1) 
1400

>  <Unit>  (1) 
nM

>  <Type>  (1) 
IC50

>  <pValue>  (1) 
5.85

>  <Ligand Efficiency>  (1) 
0

>  <Binding Efficiency>  (1) 
0

>  <Surface Efficiency>  (1) 
0

>  <Assay Index>  (1) 
407281

>  <Assay Category>  (1) 


>  <Assay Organism>  (1) 


>  <Target ID>  (1) 
11365

>  <Target Name>  (1) 
Cytochrome P450 2D6

>  <Target Organism>  (1) 
Homo sapiens

>  <Target Description>  (1) 
Target is a single protein chain

>  <Sequence Accession>  (1) 
P10635

>  <Reference>  (1) 
Bioorg Med Chem Lett 18 (23), 6151-6155 (2008)

>  <Pubmed ID>  (1) 
18954981

>  <DOI>  (1) 
10.1016/j.bmcl.2008.10.013

$$$$
