4wnv_ligand_702
     RDKit          2D

 29 32  0  0  0  0  0  0  0  0999 V2000
    0.0000   -0.0000   -0.0000 S   0  0  0  0  0  0  0  0  0  0  0  0
    0.7385    1.3103   -0.0000 O   0  0  0  0  0  0  0  0  0  0  0  0
   -0.7504   -1.2984   -0.0000 O   0  0  0  0  0  0  0  0  0  0  0  0
    1.2745   -0.7385   -0.0000 N   0  0  0  0  0  0  0  0  0  0  0  0
   -1.3103    0.7623   -0.0000 C   0  0  0  0  0  0  0  0  0  0  0  0
   -1.3222    2.2870   -0.0000 C   0  0  0  0  0  0  0  0  0  0  0  0
   -2.6325    0.0238   -0.0000 C   0  0  0  0  0  0  0  0  0  0  0  0
   -2.6444    3.0375   -0.0000 C   0  0  0  0  0  0  0  0  0  0  0  0
   -3.9427    0.7862   -0.0000 C   0  0  0  0  0  0  0  0  0  0  0  0
   -2.6682    4.5502   -0.0000 N   0  0  0  0  0  0  0  0  0  0  0  0
   -3.9427    2.2989   -0.0000 C   0  0  0  0  0  0  0  0  0  0  0  0
   -1.3817    5.3245   -0.0000 C   0  0  0  0  0  0  0  0  0  0  0  0
   -0.0953    4.5860   -0.0000 N   0  0  0  0  0  0  0  0  0  0  0  0
   -1.4056    6.8254   -0.0000 N   0  0  0  0  0  0  0  0  0  0  0  0
    1.1912    5.3483   -0.0000 C   0  0  0  0  0  0  0  0  0  0  0  0
   -0.1310    7.5996   -0.0000 C   0  0  0  0  0  0  0  0  0  0  0  0
    2.4776    4.6098   -0.0000 N   0  0  0  0  0  0  0  0  0  0  0  0
    1.1673    6.8611   -0.0000 C   0  0  0  0  0  0  0  0  0  0  0  0
    3.7641    5.3721   -0.0000 C   0  0  0  0  0  0  0  0  0  0  0  0
    2.4776    3.1208   -0.0000 C   0  0  0  0  0  0  0  0  0  0  0  0
    5.0505    4.6336   -0.0000 C   0  0  0  0  0  0  0  0  0  0  0  0
    3.7402    6.8730   -0.0000 C   0  0  0  0  0  0  0  0  0  0  0  0
    6.3370    5.4079   -0.0000 C   0  0  0  0  0  0  0  0  0  0  0  0
    5.0148    7.6473   -0.0000 C   0  0  0  0  0  0  0  0  0  0  0  0
    7.7545    4.9552   -0.0000 N   0  0  0  0  0  0  0  0  0  0  0  0
    6.3251    6.9207   -0.0000 C   0  0  0  0  0  0  0  0  0  0  0  0
    8.6240    6.1821   -0.0000 N   0  0  0  0  0  0  0  0  0  0  0  0
    7.7426    7.3971   -0.0000 C   0  0  0  0  0  0  0  0  0  0  0  0
   10.1130    6.1940   -0.0000 C   0  0  0  0  0  0  0  0  0  0  0  0
  1  2  2  0
  1  3  2  0
  1  4  1  0
  1  5  1  0
  5  6  2  0
  5  7  1  0
  6  8  1  0
  7  9  2  0
  8 10  1  0
  8 11  2  0
 10 12  1  0
 12 13  2  0
 12 14  1  0
 13 15  1  0
 14 16  2  0
 15 17  1  0
 15 18  2  0
 17 19  1  0
 17 20  1  0
 19 21  2  0
 19 22  1  0
 21 23  1  0
 22 24  2  0
 23 25  2  0
 23 26  1  0
 25 27  1  0
 26 28  2  0
 27 29  1  0
  9 11  1  0
 16 18  1  0
 24 26  1  0
 27 28  1  0
M  END
>  <MolRegNo>  (1) 
489522

>  <m>  (1) 
=

>  <Value>  (1) 
18000

>  <Unit>  (1) 
nM

>  <Type>  (1) 
IC50

>  <pValue>  (1) 
4.75

>  <Ligand Efficiency>  (1) 
0

>  <Binding Efficiency>  (1) 
0

>  <Surface Efficiency>  (1) 
0

>  <Assay Index>  (1) 
338813

>  <Assay Category>  (1) 


>  <Assay Organism>  (1) 
Homo sapiens

>  <Target ID>  (1) 
11365

>  <Target Name>  (1) 
Cytochrome P450 2D6

>  <Target Organism>  (1) 
Homo sapiens

>  <Target Description>  (1) 
Target is a single protein chain

>  <Sequence Accession>  (1) 
P10635

>  <Reference>  (1) 
J Med Chem 51 (15), 4632-4640 (2008)

>  <Pubmed ID>  (1) 
18620382

>  <DOI>  (1) 
10.1021/jm800566m

$$$$
