4wnv_ligand_271
     RDKit          2D

 22 24  0  0  0  0  0  0  0  0999 V2000
    0.0000   -0.0000   -0.0000 O   0  0  0  0  0  0  0  0  0  0  0  0
    0.0000   -1.4847   -0.0000 C   0  0  0  0  0  0  0  0  0  0  0  0
    1.2947   -2.2093   -0.0000 C   0  0  0  0  0  0  0  0  0  0  0  0
   -1.3066   -2.2330   -0.0000 C   0  0  0  0  0  0  0  0  0  0  0  0
    1.4491   -3.6821   -0.0000 N   0  0  0  0  0  0  0  0  0  0  0  0
    2.6369   -1.5679   -0.0000 N   0  0  0  0  0  0  0  0  0  0  0  0
   -2.6131   -1.4728   -0.0000 C   0  0  0  0  0  0  0  0  0  0  0  0
    2.9101   -3.9672   -0.0000 C   0  0  0  0  0  0  0  0  0  0  0  0
    3.6346   -2.6606   -0.0000 C   0  0  0  0  0  0  0  0  0  0  0  0
    2.9219   -0.0831   -0.0000 C   0  0  0  0  0  0  0  0  0  0  0  0
   -3.9197   -2.2093   -0.0000 C   0  0  0  0  0  0  0  0  0  0  0  0
   -2.6250    0.0356   -0.0000 C   0  0  0  0  0  0  0  0  0  0  0  0
   -5.2262   -1.4372   -0.0000 C   0  0  0  0  0  0  0  0  0  0  0  0
   -3.9197   -3.6821   -0.0000 C   0  0  0  0  0  0  0  0  0  0  0  0
   -3.9315    0.7958   -0.0000 C   0  0  0  0  0  0  0  0  0  0  0  0
   -1.3303    0.7958   -0.0000 C   0  0  0  0  0  0  0  0  0  0  0  0
   -6.5328   -2.1736   -0.0000 C   0  0  0  0  0  0  0  0  0  0  0  0
   -5.2262   -4.4185   -0.0000 C   0  0  0  0  0  0  0  0  0  0  0  0
   -3.9434    2.3162   -0.0000 C   0  0  0  0  0  0  0  0  0  0  0  0
   -1.3422    2.3162   -0.0000 C   0  0  0  0  0  0  0  0  0  0  0  0
   -6.5447   -3.6584   -0.0000 C   0  0  0  0  0  0  0  0  0  0  0  0
   -2.6606    3.0763   -0.0000 C   0  0  0  0  0  0  0  0  0  0  0  0
  1  2  1  0
  2  3  1  0
  2  4  1  0
  3  5  2  0
  3  6  1  0
  4  7  2  0
  5  8  1  0
  6  9  1  0
  6 10  1  0
  7 11  1  0
  7 12  1  0
 11 13  2  0
 11 14  1  0
 12 15  2  0
 12 16  1  0
 13 17  1  0
 14 18  2  0
 15 19  1  0
 16 20  2  0
 17 21  2  0
 19 22  2  0
  8  9  2  0
 18 21  1  0
 20 22  1  0
M  END
>  <MolRegNo>  (1) 
343009

>  <m>  (1) 
=

>  <Value>  (1) 
15000

>  <Unit>  (1) 
nM

>  <Type>  (1) 
IC50

>  <pValue>  (1) 
4.82

>  <Ligand Efficiency>  (1) 
0

>  <Binding Efficiency>  (1) 
0

>  <Surface Efficiency>  (1) 
0

>  <Assay Index>  (1) 
259863

>  <Assay Category>  (1) 


>  <Assay Organism>  (1) 
Homo sapiens

>  <Target ID>  (1) 
11365

>  <Target Name>  (1) 
Cytochrome P450 2D6

>  <Target Organism>  (1) 
Homo sapiens

>  <Target Description>  (1) 
Target is a single protein chain

>  <Sequence Accession>  (1) 
P10635

>  <Reference>  (1) 
J Med Chem 49 (8), 2417-2430 (2006)

>  <Pubmed ID>  (1) 
16610785

>  <DOI>  (1) 
10.1021/jm0508538

$$$$
