4wnv_ligand_25
     RDKit          2D

 16 17  0  0  0  0  0  0  0  0999 V2000
    0.0000   -0.0000   -0.0000 O   0  0  0  0  0  0  0  0  0  0  0  0
    1.2640    0.7797   -0.0000 C   0  0  0  0  0  0  0  0  0  0  0  0
   -1.3231    0.7442   -0.0000 C   0  0  0  0  0  0  0  0  0  0  0  0
    1.2286    2.2917   -0.0000 C   0  0  0  0  0  0  0  0  0  0  0  0
    2.5752    0.0591   -0.0000 C   0  0  0  0  0  0  0  0  0  0  0  0
   -2.6343   -0.0000   -0.0000 C   0  0  0  0  0  0  0  0  0  0  0  0
    2.5162    3.0714   -0.0000 C   0  0  0  0  0  0  0  0  0  0  0  0
    3.8510    0.8387   -0.0000 C   0  0  0  0  0  0  0  0  0  0  0  0
   -3.9456    0.7442   -0.0000 C   0  0  0  0  0  0  0  0  0  0  0  0
    3.8156    2.3508   -0.0000 C   0  0  0  0  0  0  0  0  0  0  0  0
   -5.2450   -0.0118   -0.0000 C   0  0  0  0  0  0  0  0  0  0  0  0
    5.0796    3.1186   -0.0000 N   0  0  0  0  0  0  0  0  0  0  0  0
    5.2095    4.6307   -0.0000 C   0  0  0  0  0  0  0  0  0  0  0  0
    6.4499    2.5398   -0.0000 C   0  0  0  0  0  0  0  0  0  0  0  0
    6.6625    4.9733   -0.0000 N   0  0  0  0  0  0  0  0  0  0  0  0
    7.4186    3.6857   -0.0000 C   0  0  0  0  0  0  0  0  0  0  0  0
  1  2  1  0
  1  3  1  0
  2  4  2  0
  2  5  1  0
  3  6  1  0
  4  7  1  0
  5  8  2  0
  6  9  1  0
  7 10  2  0
  9 11  1  0
 10 12  1  0
 12 13  1  0
 12 14  1  0
 13 15  2  0
 14 16  2  0
  8 10  1  0
 15 16  1  0
M  END
>  <MolRegNo>  (1) 
186320

>  <m>  (1) 
=

>  <Value>  (1) 
460

>  <Unit>  (1) 
nM

>  <Type>  (1) 
IC50

>  <pValue>  (1) 
6.34

>  <Ligand Efficiency>  (1) 
0

>  <Binding Efficiency>  (1) 
0

>  <Surface Efficiency>  (1) 
0

>  <Assay Index>  (1) 
51627

>  <Assay Category>  (1) 


>  <Assay Organism>  (1) 


>  <Target ID>  (1) 
11365

>  <Target Name>  (1) 
Cytochrome P450 2D6

>  <Target Organism>  (1) 
Homo sapiens

>  <Target Description>  (1) 
Target is a single protein chain

>  <Sequence Accession>  (1) 
P10635

>  <Reference>  (1) 
J Med Chem 46 (25), 5416-5427 (2003)

>  <Pubmed ID>  (1) 
14640550

>  <DOI>  (1) 
10.1021/jm020557k

$$$$
