4wnv_ligand_365
     RDKit          2D

 37 42  0  0  1  0  0  0  0  0999 V2000
    0.0000   -0.0000   -0.0000 Cl  0  0  0  0  0  0  0  0  0  0  0  0
    1.4969    0.0238   -0.0000 C   0  0  0  0  0  0  0  0  0  0  0  0
    2.2334    1.3424   -0.0000 C   0  0  0  0  0  0  0  0  0  0  0  0
    2.2453   -1.2712   -0.0000 C   0  0  0  0  0  0  0  0  0  0  0  0
    3.7303    1.3543   -0.0000 C   0  0  0  0  0  0  0  0  0  0  0  0
    3.7303   -1.2474   -0.0000 C   0  0  0  0  0  0  0  0  0  0  0  0
    4.4669    0.0594   -0.0000 C   0  0  0  0  0  0  0  0  0  0  0  0
    5.9637    0.0832   -0.0000 C   0  0  0  0  0  0  0  0  0  0  0  0
    6.8310    1.3187   -0.0000 S   0  0  0  0  0  0  0  0  0  0  0  0
    6.8428   -1.1167   -0.0000 C   0  0  0  0  0  0  0  0  0  0  0  0
    8.2566    0.8672   -0.0000 C   0  0  0  0  0  0  0  0  0  0  0  0
    8.2566   -0.6296   -0.0000 C   0  0  0  0  0  0  0  0  0  0  0  0
    9.5515    1.6394   -0.0000 C   0  0  0  0  0  0  0  0  0  0  0  0
    9.5515   -1.3662   -0.0000 N   0  0  0  0  0  0  0  0  0  0  0  0
    9.5396    3.1601   -0.0000 O   0  0  0  0  0  0  0  0  0  0  0  0
   10.8464    0.9029   -0.0000 N   0  0  0  0  0  0  0  0  0  0  0  0
   10.8464   -0.6059   -0.0000 C   0  0  0  0  0  0  0  0  0  0  0  0
   12.1294    1.6751   -0.0000 C   0  0  0  0  0  0  0  0  0  0  0  0
   13.5312    1.1761   -0.0000 C   0  0  0  0  0  0  0  0  0  0  0  0
   12.1651    3.1957   -0.0000 C   0  0  0  0  0  0  0  0  0  0  0  0
   14.4460    2.3760   -0.0000 N   0  0  0  0  0  0  0  0  0  0  0  0
   13.6025    3.6234   -0.0000 C   0  0  0  0  0  0  0  0  0  0  0  0
   15.9429    2.3403   -0.0000 C   0  0  0  0  0  0  0  0  0  0  0  0
   16.6438    1.0217   -0.0000 O   0  0  0  0  0  0  0  0  0  0  0  0
   16.7269    3.6234   -0.0000 N   0  0  0  0  0  0  0  0  0  0  0  0
   18.2238    3.5877   -0.0000 C   0  0  0  0  0  0  0  0  0  0  0  0
   16.0023    4.9658   -0.0000 C   0  0  0  0  0  0  0  0  0  0  0  0
   19.1386    4.7876   -0.0000 C   0  0  0  0  0  0  0  0  0  0  0  0
   19.0554    2.3522   -0.0000 C   0  0  0  0  0  0  0  0  0  0  0  0
   20.5404    4.2887   -0.0000 N   0  0  0  0  0  0  0  0  0  0  0  0
   20.4929    2.7799   -0.0000 C   0  0  0  0  0  0  0  0  0  0  0  0
   21.7759    5.1440   -0.0000 C   0  0  0  0  0  0  0  0  0  0  0  0
   23.0708    4.4312   -0.0000 C   0  0  0  0  0  0  0  0  0  0  0  0
   21.7165    6.6528   -0.0000 C   0  0  0  0  0  0  0  0  0  0  0  0
   24.3420    5.2153   -0.0000 C   0  0  0  0  0  0  0  0  0  0  0  0
   22.9996    7.4368   -0.0000 C   0  0  0  0  0  0  0  0  0  0  0  0
   24.3063    6.7359   -0.0000 O   0  0  0  0  0  0  0  0  0  0  0  0
  1  2  1  0
  2  3  2  0
  2  4  1  0
  3  5  1  0
  4  6  2  0
  5  7  2  0
  7  8  1  0
  8  9  1  0
  8 10  2  0
  9 11  1  0
 10 12  1  0
 11 13  1  0
 12 14  1  0
 13 15  2  0
 13 16  1  0
 14 17  2  0
 18 16  1  1
 18 19  1  0
 18 20  1  0
 19 21  1  0
 20 22  1  0
 21 23  1  0
 23 24  2  0
 23 25  1  0
 26 25  1  6
 25 27  1  0
 26 28  1  0
 26 29  1  0
 28 30  1  0
 29 31  1  0
 30 32  1  0
 32 33  1  0
 32 34  1  0
 33 35  1  0
 34 36  1  0
 35 37  1  0
  6  7  1  0
 11 12  2  0
 16 17  1  0
 21 22  1  0
 30 31  1  0
 36 37  1  0
M  END
>  <MolRegNo>  (1) 
394181

>  <m>  (1) 
=

>  <Value>  (1) 
22500

>  <Unit>  (1) 
nM

>  <Type>  (1) 
IC50

>  <pValue>  (1) 
4.65

>  <Ligand Efficiency>  (1) 
0

>  <Binding Efficiency>  (1) 
0

>  <Surface Efficiency>  (1) 
0

>  <Assay Index>  (1) 
291576

>  <Assay Category>  (1) 


>  <Assay Organism>  (1) 


>  <Target ID>  (1) 
11365

>  <Target Name>  (1) 
Cytochrome P450 2D6

>  <Target Organism>  (1) 
Homo sapiens

>  <Target Description>  (1) 
Target is a single protein chain

>  <Sequence Accession>  (1) 
P10635

>  <Reference>  (1) 
Bioorg Med Chem Lett 17 (9), 2535-2539 (2007)

>  <Pubmed ID>  (1) 
17329101

>  <DOI>  (1) 
10.1016/j.bmcl.2007.02.012

$$$$
