4wnv_ligand_554
     RDKit          2D

 44 46  0  0  0  0  0  0  0  0999 V2000
    0.0000   -0.0000   -0.0000 I   0  0  0  0  0  0  0  0  0  0  0  0
    0.0000    4.9547   -0.0000 O   0  0  0  0  0  0  0  0  0  0  0  0
   -0.0119    6.4673   -0.0000 C   0  0  0  0  0  0  0  0  0  0  0  0
   -1.3340    7.2296   -0.0000 N   0  0  0  0  0  0  0  0  0  0  0  0
    1.2744    7.2296   -0.0000 N   0  0  0  0  0  0  0  0  0  0  0  0
   -2.6441    6.4793   -0.0000 C   0  0  0  0  0  0  0  0  0  0  0  0
    2.5726    6.4912   -0.0000 C   0  0  0  0  0  0  0  0  0  0  0  0
   -2.6560    4.9785   -0.0000 C   0  0  0  0  0  0  0  0  0  0  0  0
   -3.9662    7.2415   -0.0000 C   0  0  0  0  0  0  0  0  0  0  0  0
    3.8590    7.2653   -0.0000 C   0  0  0  0  0  0  0  0  0  0  0  0
    2.5607    5.0024   -0.0000 C   0  0  0  0  0  0  0  0  0  0  0  0
   -3.9781    4.2401   -0.0000 C   0  0  0  0  0  0  0  0  0  0  0  0
   -5.2763    6.4912   -0.0000 C   0  0  0  0  0  0  0  0  0  0  0  0
    3.8351    8.7780   -0.0000 O   0  0  0  0  0  0  0  0  0  0  0  0
    5.1572    6.5269   -0.0000 N   0  0  0  0  0  0  0  0  0  0  0  0
    3.8590    4.2639   -0.0000 C   0  0  0  0  0  0  0  0  0  0  0  0
   -5.2882    5.0024   -0.0000 C   0  0  0  0  0  0  0  0  0  0  0  0
    6.4435    7.3011   -0.0000 C   0  0  0  0  0  0  0  0  0  0  0  0
    5.1453    5.0262   -0.0000 C   0  0  0  0  0  0  0  0  0  0  0  0
    3.8590    2.7751   -0.0000 C   0  0  0  0  0  0  0  0  0  0  0  0
   -6.6103    4.2639   -0.0000 C   0  0  0  0  0  0  0  0  0  0  0  0
    7.7298    6.5626   -0.0000 C   0  0  0  0  0  0  0  0  0  0  0  0
    6.4197    8.8137   -0.0000 C   0  0  0  0  0  0  0  0  0  0  0  0
    6.4316    4.3116   -0.0000 C   0  0  0  0  0  0  0  0  0  0  0  0
    5.1453    2.0367   -0.0000 C   0  0  0  0  0  0  0  0  0  0  0  0
   -6.6222    2.7751   -0.0000 O   0  0  0  0  0  0  0  0  0  0  0  0
   -7.9204    5.0262   -0.0000 O   0  0  0  0  0  0  0  0  0  0  0  0
    9.0043    7.3249   -0.0000 N   0  0  0  0  0  0  0  0  0  0  0  0
    7.7179    9.5760   -0.0000 C   0  0  0  0  0  0  0  0  0  0  0  0
    6.4316    2.8109   -0.0000 C   0  0  0  0  0  0  0  0  0  0  0  0
   -9.2425    4.2877   -0.0000 C   0  0  0  0  0  0  0  0  0  0  0  0
    9.0043    8.8375   -0.0000 C   0  0  0  0  0  0  0  0  0  0  0  0
   10.4454    7.7418   -0.0000 C   0  0  0  0  0  0  0  0  0  0  0  0
    8.9804    5.8361   -0.0000 C   0  0  0  0  0  0  0  0  0  0  0  0
    7.7298    2.0724   -0.0000 O   0  0  0  0  0  0  0  0  0  0  0  0
   -9.2544    2.7989   -0.0000 C   0  0  0  0  0  0  0  0  0  0  0  0
  -10.5526    5.0500   -0.0000 C   0  0  0  0  0  0  0  0  0  0  0  0
   11.5054    6.6936   -0.0000 C   0  0  0  0  0  0  0  0  0  0  0  0
   11.1005    5.2525   -0.0000 C   0  0  0  0  0  0  0  0  0  0  0  0
   12.9347    7.1105   -0.0000 C   0  0  0  0  0  0  0  0  0  0  0  0
   12.1605    4.2044   -0.0000 C   0  0  0  0  0  0  0  0  0  0  0  0
   14.0066    6.0743   -0.0000 C   0  0  0  0  0  0  0  0  0  0  0  0
   11.7675    2.7513   -0.0000 O   0  0  0  0  0  0  0  0  0  0  0  0
   13.6017    4.6212   -0.0000 C   0  0  0  0  0  0  0  0  0  0  0  0
  2  3  2  0
  3  4  1  0
  3  5  1  0
  4  6  1  0
  7  5  1  0
  6  8  2  0
  6  9  1  0
  7 10  1  0
  7 11  1  6
  8 12  1  0
  9 13  2  0
 10 14  2  0
 10 15  1  0
 11 16  1  0
 12 17  2  0
 18 15  1  1
 16 19  2  0
 16 20  1  0
 17 21  1  0
 18 22  1  0
 18 23  1  0
 19 24  1  0
 20 25  2  0
 21 26  2  0
 21 27  1  0
 22 28  1  0
 23 29  1  0
 24 30  2  0
 27 31  1  0
 28 32  1  0
 28 33  1  0
 28 34  1  0
 30 35  1  0
 31 36  1  0
 31 37  1  0
 33 38  1  0
 38 39  2  0
 38 40  1  0
 39 41  1  0
 40 42  2  0
 41 43  1  0
 41 44  2  0
 13 17  1  0
 25 30  1  0
 29 32  1  0
 42 44  1  0
M  CHG  2   1  -1  28   1
M  END
>  <MolRegNo>  (1) 
553991

>  <m>  (1) 
=

>  <Value>  (1) 
3981.1

>  <Unit>  (1) 
nM

>  <Type>  (1) 
IC50

>  <pValue>  (1) 
5.4

>  <Ligand Efficiency>  (1) 
0

>  <Binding Efficiency>  (1) 
0

>  <Surface Efficiency>  (1) 
0

>  <Assay Index>  (1) 
359364

>  <Assay Category>  (1) 


>  <Assay Organism>  (1) 


>  <Target ID>  (1) 
11365

>  <Target Name>  (1) 
Cytochrome P450 2D6

>  <Target Organism>  (1) 
Homo sapiens

>  <Target Description>  (1) 
Target is a single protein chain

>  <Sequence Accession>  (1) 
P10635

>  <Reference>  (1) 
J Med Chem 51 (16), 4866-4869 (2008)

>  <Pubmed ID>  (1) 
18680280

>  <DOI>  (1) 
10.1021/jm800634k

$$$$
