4wnv_ligand_290
     RDKit          2D

 23 24  0  0  0  0  0  0  0  0999 V2000
    0.0000   -0.0000   -0.0000 O   0  0  0  0  0  0  0  0  0  0  0  0
   -0.0119    1.5219   -0.0000 C   0  0  0  0  0  0  0  0  0  0  0  0
    1.2841    2.2829   -0.0000 N   0  0  0  0  0  0  0  0  0  0  0  0
   -1.3317    2.2829   -0.0000 C   0  0  0  0  0  0  0  0  0  0  0  0
    2.5802    1.5457   -0.0000 C   0  0  0  0  0  0  0  0  0  0  0  0
   -2.6515    1.5457   -0.0000 N   0  0  0  0  0  0  0  0  0  0  0  0
   -1.3436    3.8048   -0.0000 C   0  0  0  0  0  0  0  0  0  0  0  0
    3.8762    2.3067   -0.0000 C   0  0  0  0  0  0  0  0  0  0  0  0
    2.5683    0.0476   -0.0000 C   0  0  0  0  0  0  0  0  0  0  0  0
   -0.0476    4.5658   -0.0000 C   0  0  0  0  0  0  0  0  0  0  0  0
    5.1603    3.0795   -0.0000 N   0  0  0  0  0  0  0  0  0  0  0  0
    3.8643   -0.6896   -0.0000 C   0  0  0  0  0  0  0  0  0  0  0  0
    3.8524   -2.1878   -0.0000 C   0  0  0  0  0  0  0  0  0  0  0  0
    5.1484    0.0713   -0.0000 C   0  0  0  0  0  0  0  0  0  0  0  0
    5.1484   -2.9250   -0.0000 C   0  0  0  0  0  0  0  0  0  0  0  0
    6.4444   -0.6658   -0.0000 C   0  0  0  0  0  0  0  0  0  0  0  0
    6.4444   -2.1640   -0.0000 C   0  0  0  0  0  0  0  0  0  0  0  0
    7.7405   -2.9012   -0.0000 C   0  0  0  0  0  0  0  0  0  0  0  0
    7.7286   -4.3993   -0.0000 C   0  0  0  0  0  0  0  0  0  0  0  0
    9.0246   -2.1402   -0.0000 C   0  0  0  0  0  0  0  0  0  0  0  0
    9.0246   -5.1365   -0.0000 C   0  0  0  0  0  0  0  0  0  0  0  0
   10.3206   -2.8774   -0.0000 C   0  0  0  0  0  0  0  0  0  0  0  0
   10.3206   -4.3637   -0.0000 C   0  0  0  0  0  0  0  0  0  0  0  0
  1  2  2  0
  2  3  1  0
  2  4  1  0
  5  3  1  0
  4  6  1  1
  4  7  1  0
  5  8  1  6
  5  9  1  0
  7 10  1  0
  8 11  3  0
  9 12  1  0
 12 13  2  0
 12 14  1  0
 13 15  1  0
 14 16  2  0
 15 17  2  0
 17 18  1  0
 18 19  2  0
 18 20  1  0
 19 21  1  0
 20 22  2  0
 21 23  2  0
 16 17  1  0
 22 23  1  0
M  END
>  <MolRegNo>  (1) 
352129

>  <m>  (1) 
=

>  <Value>  (1) 
12605

>  <Unit>  (1) 
nM

>  <Type>  (1) 
IC50

>  <pValue>  (1) 
4.9

>  <Ligand Efficiency>  (1) 
0

>  <Binding Efficiency>  (1) 
0

>  <Surface Efficiency>  (1) 
0

>  <Assay Index>  (1) 
264997

>  <Assay Category>  (1) 


>  <Assay Organism>  (1) 
Homo sapiens

>  <Target ID>  (1) 
11365

>  <Target Name>  (1) 
Cytochrome P450 2D6

>  <Target Organism>  (1) 
Homo sapiens

>  <Target Description>  (1) 
Target is a single protein chain

>  <Sequence Accession>  (1) 
P10635

>  <Reference>  (1) 
Bioorg Med Chem Lett 16 (13), 3614-3617 (2006)

>  <Pubmed ID>  (1) 
16647256

>  <DOI>  (1) 
10.1016/j.bmcl.2006.01.102

$$$$
