4wnv_ligand_603
     RDKit          2D

 21 23  0  0  0  0  0  0  0  0999 V2000
    0.0000   -0.0000   -0.0000 O   0  0  0  0  0  0  0  0  0  0  0  0
   -1.3039    0.7586   -0.0000 C   0  0  0  0  0  0  0  0  0  0  0  0
    1.2802    0.7586   -0.0000 C   0  0  0  0  0  0  0  0  0  0  0  0
   -1.3276    2.2641   -0.0000 N   0  0  0  0  0  0  0  0  0  0  0  0
   -2.6078    0.0237   -0.0000 C   0  0  0  0  0  0  0  0  0  0  0  0
    1.2684    2.2641   -0.0000 C   0  0  0  0  0  0  0  0  0  0  0  0
    2.5604    0.0237   -0.0000 C   0  0  0  0  0  0  0  0  0  0  0  0
   -0.0356    3.0227   -0.0000 C   0  0  0  0  0  0  0  0  0  0  0  0
   -3.9117    0.7823   -0.0000 C   0  0  0  0  0  0  0  0  0  0  0  0
   -2.6197   -1.4699   -0.0000 C   0  0  0  0  0  0  0  0  0  0  0  0
   -1.1143    4.1014   -0.0000 C   0  0  0  0  0  0  0  0  0  0  0  0
    1.0076    4.1014   -0.0000 C   0  0  0  0  0  0  0  0  0  0  0  0
   -5.2156    0.0474   -0.0000 C   0  0  0  0  0  0  0  0  0  0  0  0
   -3.9354   -2.2048   -0.0000 C   0  0  0  0  0  0  0  0  0  0  0  0
   -5.2275   -1.4462   -0.0000 C   0  0  0  0  0  0  0  0  0  0  0  0
   -6.5196    0.8061   -0.0000 C   0  0  0  0  0  0  0  0  0  0  0  0
   -7.8235    0.0711   -0.0000 C   0  0  0  0  0  0  0  0  0  0  0  0
   -9.1985    0.6875   -0.0000 N   0  0  0  0  0  0  0  0  0  0  0  0
   -7.9894   -1.4106   -0.0000 C   0  0  0  0  0  0  0  0  0  0  0  0
  -10.2061   -0.4149   -0.0000 C   0  0  0  0  0  0  0  0  0  0  0  0
   -9.4593   -1.7069   -0.0000 N   0  0  0  0  0  0  0  0  0  0  0  0
  1  2  1  0
  1  3  1  0
  2  4  2  0
  2  5  1  0
  3  6  1  0
  3  7  1  0
  4  8  1  0
  5  9  2  0
  5 10  1  0
  8 11  1  0
  8 12  1  0
  9 13  1  0
 10 14  2  0
 13 15  2  0
 13 16  1  0
 16 17  1  0
 17 18  1  0
 17 19  2  0
 18 20  2  0
 19 21  1  0
  6  8  1  0
 14 15  1  0
 20 21  1  0
M  END
>  <MolRegNo>  (1) 
486294

>  <m>  (1) 
=

>  <Value>  (1) 
292

>  <Unit>  (1) 
nM

>  <Type>  (1) 
IC50

>  <pValue>  (1) 
6.54

>  <Ligand Efficiency>  (1) 
0

>  <Binding Efficiency>  (1) 
0

>  <Surface Efficiency>  (1) 
0

>  <Assay Index>  (1) 
405421

>  <Assay Category>  (1) 


>  <Assay Organism>  (1) 
Homo sapiens

>  <Target ID>  (1) 
11365

>  <Target Name>  (1) 
Cytochrome P450 2D6

>  <Target Organism>  (1) 
Homo sapiens

>  <Target Description>  (1) 
Target is a single protein chain

>  <Sequence Accession>  (1) 
P10635

>  <Reference>  (1) 
J Med Chem 51 (10), 2944-2953 (2008)

>  <Pubmed ID>  (1) 
18433114

>  <DOI>  (1) 
10.1021/jm7014149

$$$$
