4wnv_ligand_574
     RDKit          2D

 20 21  0  0  0  0  0  0  0  0999 V2000
    0.0000   -0.0000   -0.0000 O   0  0  0  0  0  0  0  0  0  0  0  0
   -0.0118   -1.4926   -0.0000 C   0  0  0  0  0  0  0  0  0  0  0  0
   -1.3268   -2.2389   -0.0000 C   0  0  0  0  0  0  0  0  0  0  0  0
    1.2794   -2.2389   -0.0000 C   0  0  0  0  0  0  0  0  0  0  0  0
   -2.6417   -1.4808   -0.0000 C   0  0  0  0  0  0  0  0  0  0  0  0
    2.5588   -1.4689   -0.0000 C   0  0  0  0  0  0  0  0  0  0  0  0
   -3.9566   -2.2271   -0.0000 C   0  0  0  0  0  0  0  0  0  0  0  0
    3.8500   -2.2034   -0.0000 C   0  0  0  0  0  0  0  0  0  0  0  0
   -5.2716   -1.4571   -0.0000 C   0  0  0  0  0  0  0  0  0  0  0  0
   -3.9566   -3.7079   -0.0000 C   0  0  0  0  0  0  0  0  0  0  0  0
    3.8382   -3.6960   -0.0000 C   0  0  0  0  0  0  0  0  0  0  0  0
    5.1294   -1.4334   -0.0000 C   0  0  0  0  0  0  0  0  0  0  0  0
   -6.5865   -2.2034   -0.0000 C   0  0  0  0  0  0  0  0  0  0  0  0
   -5.2597   -4.4542   -0.0000 C   0  0  0  0  0  0  0  0  0  0  0  0
    5.1294   -4.4305   -0.0000 C   0  0  0  0  0  0  0  0  0  0  0  0
    6.4206   -2.1560   -0.0000 C   0  0  0  0  0  0  0  0  0  0  0  0
   -6.5983   -3.6960   -0.0000 C   0  0  0  0  0  0  0  0  0  0  0  0
    6.4206   -3.6605   -0.0000 C   0  0  0  0  0  0  0  0  0  0  0  0
   -7.9014   -4.4423   -0.0000 O   0  0  0  0  0  0  0  0  0  0  0  0
    7.7119   -4.3949   -0.0000 O   0  0  0  0  0  0  0  0  0  0  0  0
  1  2  2  0
  2  3  1  0
  2  4  1  0
  3  5  2  0
  4  6  2  0
  5  7  1  0
  6  8  1  0
  7  9  2  0
  7 10  1  0
  8 11  2  0
  8 12  1  0
  9 13  1  0
 10 14  2  0
 11 15  1  0
 12 16  2  0
 13 17  2  0
 15 18  2  0
 17 19  1  0
 18 20  1  0
 14 17  1  0
 16 18  1  0
M  END
>  <MolRegNo>  (1) 
212131

>  <m>  (1) 
=

>  <Value>  (1) 
2000

>  <Unit>  (1) 
nM

>  <Type>  (1) 
IC50

>  <pValue>  (1) 
5.7

>  <Ligand Efficiency>  (1) 
0

>  <Binding Efficiency>  (1) 
0

>  <Surface Efficiency>  (1) 
0

>  <Assay Index>  (1) 
346197

>  <Assay Category>  (1) 


>  <Assay Organism>  (1) 
Homo sapiens

>  <Target ID>  (1) 
11365

>  <Target Name>  (1) 
Cytochrome P450 2D6

>  <Target Organism>  (1) 
Homo sapiens

>  <Target Description>  (1) 
Target is a single protein chain

>  <Sequence Accession>  (1) 
P10635

>  <Reference>  (1) 
Eur J Med Chem 43 (8), 1621-1631 (2008)

>  <Pubmed ID>  (1) 
18249473

>  <DOI>  (1) 
10.1016/j.ejmech.2007.10.034

$$$$
