4wnv_ligand_100
     RDKit          2D

 13 14  0  0  0  0  0  0  0  0999 V2000
    0.0000   -0.0000   -0.0000 S   0  0  0  0  0  0  0  0  0  0  0  0
   -1.5102    0.3383   -0.0000 C   0  0  0  0  0  0  0  0  0  0  0  0
    0.7612    1.3411   -0.0000 C   0  0  0  0  0  0  0  0  0  0  0  0
   -1.6552    1.8606   -0.0000 C   0  0  0  0  0  0  0  0  0  0  0  0
   -0.2779    2.5010   -0.0000 C   0  0  0  0  0  0  0  0  0  0  0  0
   -2.9963    2.6460   -0.0000 C   0  0  0  0  0  0  0  0  0  0  0  0
   -0.0362    3.7092   -0.0000 C   0  0  0  0  0  0  0  0  0  0  0  0
   -4.3374    1.8848   -0.0000 C   0  0  0  0  0  0  0  0  0  0  0  0
   -3.0084    4.1924   -0.0000 C   0  0  0  0  0  0  0  0  0  0  0  0
   -5.6785    2.6580   -0.0000 N   0  0  0  0  0  0  0  0  0  0  0  0
   -4.3495    4.9657   -0.0000 C   0  0  0  0  0  0  0  0  0  0  0  0
   -5.6906    4.2045   -0.0000 C   0  0  0  0  0  0  0  0  0  0  0  0
   -6.7659    4.8328   -0.0000 F   0  0  0  0  0  0  0  0  0  0  0  0
  1  2  1  0
  1  3  1  0
  2  4  2  0
  3  5  2  0
  4  6  1  0
  5  7  1  0
  6  8  2  0
  6  9  1  0
  8 10  1  0
  9 11  2  0
 10 12  2  0
 12 13  1  0
  4  5  1  0
 11 12  1  0
M  END
>  <MolRegNo>  (1) 
299461

>  <m>  (1) 
=

>  <Value>  (1) 
296000

>  <Unit>  (1) 
nM

>  <Type>  (1) 
IC50

>  <pValue>  (1) 
0

>  <Ligand Efficiency>  (1) 
0

>  <Binding Efficiency>  (1) 
0

>  <Surface Efficiency>  (1) 
0

>  <Assay Index>  (1) 
238570

>  <Assay Category>  (1) 


>  <Assay Organism>  (1) 
Homo sapiens

>  <Target ID>  (1) 
11365

>  <Target Name>  (1) 
Cytochrome P450 2D6

>  <Target Organism>  (1) 
Homo sapiens

>  <Target Description>  (1) 
Target is a single protein chain

>  <Sequence Accession>  (1) 
P10635

>  <Reference>  (1) 
J Med Chem 48 (1), 224-239 (2005)

>  <Pubmed ID>  (1) 
15634016

>  <DOI>  (1) 
10.1021/jm049696n

$$$$
