4wnv_ligand_915
     RDKit          2D

 27 29  0  0  0  0  0  0  0  0999 V2000
    0.0000   -0.0000   -0.0000 Cl  0  0  0  0  0  0  0  0  0  0  0  0
   -0.0119    1.5111   -0.0000 C   0  0  0  0  0  0  0  0  0  0  0  0
   -1.3208    2.2727   -0.0000 C   0  0  0  0  0  0  0  0  0  0  0  0
    1.2851    2.2727   -0.0000 C   0  0  0  0  0  0  0  0  0  0  0  0
   -2.6296    1.5349   -0.0000 C   0  0  0  0  0  0  0  0  0  0  0  0
   -1.3327    3.7957   -0.0000 C   0  0  0  0  0  0  0  0  0  0  0  0
    1.2732    3.7957   -0.0000 C   0  0  0  0  0  0  0  0  0  0  0  0
   -3.9385    0.7972   -0.0000 N   0  0  0  0  0  0  0  0  0  0  0  0
   -0.0476    4.5572   -0.0000 C   0  0  0  0  0  0  0  0  0  0  0  0
    2.5582    4.5572   -0.0000 N   0  0  0  0  0  0  0  0  0  0  0  0
    3.8433    3.8195   -0.0000 C   0  0  0  0  0  0  0  0  0  0  0  0
    2.5463    6.0684   -0.0000 C   0  0  0  0  0  0  0  0  0  0  0  0
    3.9980    2.3322   -0.0000 C   0  0  0  0  0  0  0  0  0  0  0  0
    5.2117    4.4382   -0.0000 C   0  0  0  0  0  0  0  0  0  0  0  0
    3.8314    6.8299   -0.0000 C   0  0  0  0  0  0  0  0  0  0  0  0
    5.4496    2.0347   -0.0000 N   0  0  0  0  0  0  0  0  0  0  0  0
    6.2112    3.3436   -0.0000 C   0  0  0  0  0  0  0  0  0  0  0  0
    3.8076    8.3292   -0.0000 C   0  0  0  0  0  0  0  0  0  0  0  0
    5.1165    6.0922   -0.0000 C   0  0  0  0  0  0  0  0  0  0  0  0
    6.0446    0.6782   -0.0000 C   0  0  0  0  0  0  0  0  0  0  0  0
    5.0808    9.1026   -0.0000 C   0  0  0  0  0  0  0  0  0  0  0  0
    2.4868    9.0788   -0.0000 C   0  0  0  0  0  0  0  0  0  0  0  0
    6.4016    6.8537   -0.0000 C   0  0  0  0  0  0  0  0  0  0  0  0
    5.1522   -0.5235   -0.0000 O   0  0  0  0  0  0  0  0  0  0  0  0
    7.5319    0.5354   -0.0000 O   0  0  0  0  0  0  0  0  0  0  0  0
    6.3778    8.3649   -0.0000 C   0  0  0  0  0  0  0  0  0  0  0  0
    8.1388   -0.8210   -0.0000 C   0  0  0  0  0  0  0  0  0  0  0  0
  1  2  1  0
  2  3  2  0
  2  4  1  0
  3  5  1  0
  3  6  1  0
  4  7  2  0
  5  8  3  0
  6  9  2  0
  7 10  1  0
 11 10  1  1
 10 12  1  0
 11 13  1  0
 11 14  1  0
 12 15  1  0
 13 16  1  0
 14 17  1  0
 15 18  2  0
 15 19  1  0
 16 20  1  0
 18 21  1  0
 18 22  1  0
 19 23  2  0
 20 24  2  0
 20 25  1  0
 21 26  2  0
 25 27  1  0
  7  9  1  0
 16 17  1  0
 23 26  1  0
M  END
>  <MolRegNo>  (1) 
590200

>  <m>  (1) 
=

>  <Value>  (1) 
22000

>  <Unit>  (1) 
nM

>  <Type>  (1) 
IC50

>  <pValue>  (1) 
4.66

>  <Ligand Efficiency>  (1) 
0

>  <Binding Efficiency>  (1) 
0

>  <Surface Efficiency>  (1) 
0

>  <Assay Index>  (1) 
452357

>  <Assay Category>  (1) 


>  <Assay Organism>  (1) 


>  <Target ID>  (1) 
11365

>  <Target Name>  (1) 
Cytochrome P450 2D6

>  <Target Organism>  (1) 
Homo sapiens

>  <Target Description>  (1) 
Target is a single protein chain

>  <Sequence Accession>  (1) 
P10635

>  <Reference>  (1) 
Bioorg Med Chem Lett 20 (1), 371-374 (2010)

>  <Pubmed ID>  (1) 
19926282

>  <DOI>  (1) 
10.1016/j.bmcl.2009.10.092

$$$$
