4wnv_ligand_426
     RDKit          2D

 38 41  0  0  1  0  0  0  0  0999 V2000
    0.0000   -0.0000   -0.0000 S   0  0  0  0  0  0  0  0  0  0  0  0
    1.2043    0.8943   -0.0000 C   0  0  0  0  0  0  0  0  0  0  0  0
    0.4531   -1.4190   -0.0000 C   0  0  0  0  0  0  0  0  0  0  0  0
    2.4087    0.0358   -0.0000 N   0  0  0  0  0  0  0  0  0  0  0  0
    1.1924    2.4087   -0.0000 N   0  0  0  0  0  0  0  0  0  0  0  0
    1.9436   -1.4070   -0.0000 C   0  0  0  0  0  0  0  0  0  0  0  0
   -0.3339   -2.6829   -0.0000 C   0  0  0  0  0  0  0  0  0  0  0  0
   -0.1192    3.1837   -0.0000 C   0  0  0  0  0  0  0  0  0  0  0  0
    2.8141   -2.5995   -0.0000 C   0  0  0  0  0  0  0  0  0  0  0  0
   -1.8363   -2.6471   -0.0000 O   0  0  0  0  0  0  0  0  0  0  0  0
    0.3816   -3.9826   -0.0000 C   0  0  0  0  0  0  0  0  0  0  0  0
   -1.4309    2.4444   -0.0000 O   0  0  0  0  0  0  0  0  0  0  0  0
   -0.1312    4.6981   -0.0000 N   0  0  0  0  0  0  0  0  0  0  0  0
   -1.4428    5.4612   -0.0000 C   0  0  0  0  0  0  0  0  0  0  0  0
   -1.4547    6.9756   -0.0000 C   0  0  0  0  0  0  0  0  0  0  0  0
   -2.7545    4.7339   -0.0000 C   0  0  0  0  0  0  0  0  0  0  0  0
   -2.7664    7.7507   -0.0000 C   0  0  0  0  0  0  0  0  0  0  0  0
   -0.1550    7.7387   -0.0000 C   0  0  0  0  0  0  0  0  0  0  0  0
   -4.0661    5.4851   -0.0000 N   0  0  0  0  0  0  0  0  0  0  0  0
   -4.0780    6.9994   -0.0000 C   0  0  0  0  0  0  0  0  0  0  0  0
    1.1328    6.9875   -0.0000 N   0  0  0  0  0  0  0  0  0  0  0  0
   -5.3778    4.7458   -0.0000 C   0  0  0  0  0  0  0  0  0  0  0  0
    2.4206    7.7507   -0.0000 C   0  0  0  0  0  0  0  0  0  0  0  0
    1.1209    5.4851   -0.0000 C   0  0  0  0  0  0  0  0  0  0  0  0
   -6.6775    5.5089   -0.0000 C   0  0  0  0  0  0  0  0  0  0  0  0
    3.7084    6.9994   -0.0000 C   0  0  0  0  0  0  0  0  0  0  0  0
    2.4087    4.7458   -0.0000 C   0  0  0  0  0  0  0  0  0  0  0  0
   -6.6894    7.0233   -0.0000 O   0  0  0  0  0  0  0  0  0  0  0  0
   -7.9891    4.7816   -0.0000 C   0  0  0  0  0  0  0  0  0  0  0  0
    3.6845    5.5089   -0.0000 C   0  0  0  0  0  0  0  0  0  0  0  0
    5.0081    7.7626   -0.0000 C   0  0  0  0  0  0  0  0  0  0  0  0
    6.2959    7.0114   -0.0000 C   0  0  0  0  0  0  0  0  0  0  0  0
    6.2601    5.5209   -0.0000 C   0  0  0  0  0  0  0  0  0  0  0  0
    7.5837    7.7745   -0.0000 C   0  0  0  0  0  0  0  0  0  0  0  0
    7.5479    4.7816   -0.0000 C   0  0  0  0  0  0  0  0  0  0  0  0
    8.8715    7.0352   -0.0000 C   0  0  0  0  0  0  0  0  0  0  0  0
    8.8477    5.5328   -0.0000 C   0  0  0  0  0  0  0  0  0  0  0  0
   10.1355    4.7935   -0.0000 F   0  0  0  0  0  0  0  0  0  0  0  0
  1  2  1  0
  1  3  1  0
  2  4  2  0
  2  5  1  0
  3  6  2  0
  3  7  1  0
  5  8  1  0
  6  9  1  0
  7 10  2  0
  7 11  1  0
  8 12  2  0
  8 13  1  0
 14 13  1  6
 14 15  1  0
 14 16  1  0
 15 17  1  0
 15 18  1  1
 16 19  1  0
 17 20  1  0
 18 21  1  0
 19 22  1  0
 21 23  1  0
 21 24  1  0
 22 25  1  0
 23 26  1  0
 24 27  1  0
 25 28  2  0
 25 29  1  0
 26 30  1  0
 26 31  1  6
 31 32  1  0
 32 33  2  0
 32 34  1  0
 33 35  1  0
 34 36  2  0
 35 37  2  0
 37 38  1  0
  4  6  1  0
 19 20  1  0
 27 30  1  0
 36 37  1  0
M  END
>  <MolRegNo>  (1) 
421521

>  <m>  (1) 
=

>  <Value>  (1) 
3900

>  <Unit>  (1) 
nM

>  <Type>  (1) 
IC50

>  <pValue>  (1) 
5.41

>  <Ligand Efficiency>  (1) 
0

>  <Binding Efficiency>  (1) 
0

>  <Surface Efficiency>  (1) 
0

>  <Assay Index>  (1) 
307824

>  <Assay Category>  (1) 


>  <Assay Organism>  (1) 
Homo sapiens

>  <Target ID>  (1) 
11365

>  <Target Name>  (1) 
Cytochrome P450 2D6

>  <Target Organism>  (1) 
Homo sapiens

>  <Target Description>  (1) 
Target is a single protein chain

>  <Sequence Accession>  (1) 
P10635

>  <Reference>  (1) 
Bioorg Med Chem Lett 17 (11), 2992-2997 (2007)

>  <Pubmed ID>  (1) 
17418570

>  <DOI>  (1) 
10.1016/j.bmcl.2007.03.065

$$$$
