4wnv_ligand_796
     RDKit          2D

 27 30  0  0  0  0  0  0  0  0999 V2000
    0.0000   -0.0000   -0.0000 O   0  0  0  0  0  0  0  0  0  0  0  0
    1.4365    0.3886   -0.0000 C   0  0  0  0  0  0  0  0  0  0  0  0
    2.4727   -0.6712   -0.0000 N   0  0  0  0  0  0  0  0  0  0  0  0
    1.8251    1.8486   -0.0000 C   0  0  0  0  0  0  0  0  0  0  0  0
    2.0606   -2.1077   -0.0000 C   0  0  0  0  0  0  0  0  0  0  0  0
    3.9092   -0.2826   -0.0000 C   0  0  0  0  0  0  0  0  0  0  0  0
    3.2616    2.2372   -0.0000 C   0  0  0  0  0  0  0  0  0  0  0  0
    0.7654    2.9319   -0.0000 C   0  0  0  0  0  0  0  0  0  0  0  0
    3.0968   -3.1674   -0.0000 C   0  0  0  0  0  0  0  0  0  0  0  0
    4.9454   -1.3423   -0.0000 C   0  0  0  0  0  0  0  0  0  0  0  0
    3.6502    3.6973   -0.0000 C   0  0  0  0  0  0  0  0  0  0  0  0
    1.1539    4.3920   -0.0000 C   0  0  0  0  0  0  0  0  0  0  0  0
    2.5904    4.7806   -0.0000 C   0  0  0  0  0  0  0  0  0  0  0  0
    2.9790    6.2406   -0.0000 C   0  0  0  0  0  0  0  0  0  0  0  0
    1.9193    7.3239   -0.0000 C   0  0  0  0  0  0  0  0  0  0  0  0
    4.4155    6.6292   -0.0000 C   0  0  0  0  0  0  0  0  0  0  0  0
    2.3079    8.7840   -0.0000 C   0  0  0  0  0  0  0  0  0  0  0  0
    0.4592    6.9589   -0.0000 C   0  0  0  0  0  0  0  0  0  0  0  0
    4.8041    8.0893   -0.0000 C   0  0  0  0  0  0  0  0  0  0  0  0
    3.7444    9.1725   -0.0000 O   0  0  0  0  0  0  0  0  0  0  0  0
    1.2481    9.8673   -0.0000 C   0  0  0  0  0  0  0  0  0  0  0  0
   -0.6005    8.0422   -0.0000 C   0  0  0  0  0  0  0  0  0  0  0  0
    5.3457    9.4905   -0.0000 C   0  0  0  0  0  0  0  0  0  0  0  0
    5.9463    7.1473   -0.0000 C   0  0  0  0  0  0  0  0  0  0  0  0
   -0.2119    9.5022   -0.0000 C   0  0  0  0  0  0  0  0  0  0  0  0
    6.8294    9.4080   -0.0000 N   0  0  0  0  0  0  0  0  0  0  0  0
    7.1944    7.9597   -0.0000 C   0  0  0  0  0  0  0  0  0  0  0  0
  1  2  2  0
  2  3  1  0
  2  4  1  0
  3  5  1  0
  3  6  1  0
  4  7  2  0
  4  8  1  0
  5  9  1  0
  6 10  1  0
  7 11  1  0
  8 12  2  0
 11 13  2  0
 13 14  1  0
 14 15  1  0
 14 16  2  0
 15 17  2  0
 15 18  1  0
 16 19  1  0
 17 20  1  0
 17 21  1  0
 18 22  2  0
 19 23  1  0
 19 24  1  0
 21 25  2  0
 23 26  1  0
 24 27  1  0
 12 13  1  0
 19 20  1  0
 22 25  1  0
 26 27  1  0
M  END
>  <MolRegNo>  (1) 
566221

>  <m>  (1) 
=

>  <Value>  (1) 
2400

>  <Unit>  (1) 
nM

>  <Type>  (1) 
IC50

>  <pValue>  (1) 
5.62

>  <Ligand Efficiency>  (1) 
0

>  <Binding Efficiency>  (1) 
0

>  <Surface Efficiency>  (1) 
0

>  <Assay Index>  (1) 
428577

>  <Assay Category>  (1) 


>  <Assay Organism>  (1) 
Homo sapiens

>  <Target ID>  (1) 
11365

>  <Target Name>  (1) 
Cytochrome P450 2D6

>  <Target Organism>  (1) 
Homo sapiens

>  <Target Description>  (1) 
Target is a single protein chain

>  <Sequence Accession>  (1) 
P10635

>  <Reference>  (1) 
J Med Chem 52 (18), 5685-5702 (2009)

>  <Pubmed ID>  (1) 
19694468

>  <DOI>  (1) 
10.1021/jm900773n

$$$$
