4wnv_ligand_635
     RDKit          2D

 21 24  0  0  0  0  0  0  0  0999 V2000
    0.0000   -0.0000   -0.0000 N   0  0  0  0  0  0  0  0  0  0  0  0
   -0.8909   -1.2074   -0.0000 N   0  0  0  0  0  0  0  0  0  0  0  0
   -0.8909    1.2191   -0.0000 C   0  0  0  0  0  0  0  0  0  0  0  0
   -2.3327   -0.7385   -0.0000 C   0  0  0  0  0  0  0  0  0  0  0  0
   -2.3327    0.7619   -0.0000 C   0  0  0  0  0  0  0  0  0  0  0  0
   -3.6339   -1.4770   -0.0000 C   0  0  0  0  0  0  0  0  0  0  0  0
   -3.6339    1.5239   -0.0000 C   0  0  0  0  0  0  0  0  0  0  0  0
   -4.9351   -0.7151   -0.0000 C   0  0  0  0  0  0  0  0  0  0  0  0
   -4.9351    0.7737   -0.0000 C   0  0  0  0  0  0  0  0  0  0  0  0
   -6.2362    1.5239   -0.0000 C   0  0  0  0  0  0  0  0  0  0  0  0
   -7.6077    0.9261   -0.0000 C   0  0  0  0  0  0  0  0  0  0  0  0
   -6.4003    3.0126   -0.0000 C   0  0  0  0  0  0  0  0  0  0  0  0
   -4.9585    2.2858   -0.0000 C   0  0  0  0  0  0  0  0  0  0  0  0
   -8.6158    2.0397   -0.0000 N   0  0  0  0  0  0  0  0  0  0  0  0
   -7.8656    3.3291   -0.0000 C   0  0  0  0  0  0  0  0  0  0  0  0
   -4.9820    3.7863   -0.0000 C   0  0  0  0  0  0  0  0  0  0  0  0
   -3.7042    4.5482   -0.0000 C   0  0  0  0  0  0  0  0  0  0  0  0
   -6.2831    4.5248   -0.0000 C   0  0  0  0  0  0  0  0  0  0  0  0
   -3.7277    6.0487   -0.0000 C   0  0  0  0  0  0  0  0  0  0  0  0
   -6.3066    6.0252   -0.0000 C   0  0  0  0  0  0  0  0  0  0  0  0
   -5.0288    6.7989   -0.0000 C   0  0  0  0  0  0  0  0  0  0  0  0
  1  2  1  0
  1  3  2  0
  2  4  1  0
  3  5  1  0
  4  6  2  0
  5  7  2  0
  6  8  1  0
  7  9  1  0
  9 10  1  0
 10 11  1  0
 10 12  1  0
 10 13  1  0
 11 14  1  0
 12 15  1  0
 13 16  1  0
 16 17  2  0
 16 18  1  0
 17 19  1  0
 18 20  2  0
 19 21  2  0
  4  5  1  0
  8  9  2  0
 14 15  1  0
 20 21  1  0
M  END
>  <MolRegNo>  (1) 
516307

>  <m>  (1) 
=

>  <Value>  (1) 
400

>  <Unit>  (1) 
nM

>  <Type>  (1) 
IC50

>  <pValue>  (1) 
6.4

>  <Ligand Efficiency>  (1) 
0

>  <Binding Efficiency>  (1) 
0

>  <Surface Efficiency>  (1) 
0

>  <Assay Index>  (1) 
342264

>  <Assay Category>  (1) 


>  <Assay Organism>  (1) 


>  <Target ID>  (1) 
11365

>  <Target Name>  (1) 
Cytochrome P450 2D6

>  <Target Organism>  (1) 
Homo sapiens

>  <Target Description>  (1) 
Target is a single protein chain

>  <Sequence Accession>  (1) 
P10635

>  <Reference>  (1) 
Bioorg Med Chem Lett 18 (23), 6062-6066 (2008)

>  <Pubmed ID>  (1) 
18954985

>  <DOI>  (1) 
10.1016/j.bmcl.2008.10.025

$$$$
