4wnv_ligand_873
     RDKit          2D

 28 31  0  0  0  0  0  0  0  0999 V2000
    0.0000   -0.0000   -0.0000 F   0  0  0  0  0  0  0  0  0  0  0  0
   -1.0178   -1.1006   -0.0000 C   0  0  0  0  0  0  0  0  0  0  0  0
   -0.5681   -2.5208   -0.0000 C   0  0  0  0  0  0  0  0  0  0  0  0
   -2.4971   -0.7811   -0.0000 C   0  0  0  0  0  0  0  0  0  0  0  0
   -1.5859   -3.6214   -0.0000 C   0  0  0  0  0  0  0  0  0  0  0  0
   -3.5149   -1.8817   -0.0000 C   0  0  0  0  0  0  0  0  0  0  0  0
   -3.0652   -3.3019   -0.0000 C   0  0  0  0  0  0  0  0  0  0  0  0
   -4.0830   -4.4025   -0.0000 C   0  0  0  0  0  0  0  0  0  0  0  0
   -3.6333   -5.8227   -0.0000 N   0  0  0  0  0  0  0  0  0  0  0  0
   -4.5327   -7.0299   -0.0000 C   0  0  0  0  0  0  0  0  0  0  0  0
   -2.2131   -6.2724   -0.0000 C   0  0  0  0  0  0  0  0  0  0  0  0
   -3.6569   -8.2370   -0.0000 N   0  0  0  0  0  0  0  0  0  0  0  0
   -6.0476   -7.0180   -0.0000 N   0  0  0  0  0  0  0  0  0  0  0  0
   -2.2249   -7.7636   -0.0000 C   0  0  0  0  0  0  0  0  0  0  0  0
   -0.9231   -5.5150   -0.0000 C   0  0  0  0  0  0  0  0  0  0  0  0
   -6.8050   -8.3080   -0.0000 C   0  0  0  0  0  0  0  0  0  0  0  0
   -6.8050   -5.7044   -0.0000 C   0  0  0  0  0  0  0  0  0  0  0  0
   -0.9349   -8.4974   -0.0000 C   0  0  0  0  0  0  0  0  0  0  0  0
    0.3669   -6.2606   -0.0000 C   0  0  0  0  0  0  0  0  0  0  0  0
   -8.3199   -8.2962   -0.0000 C   0  0  0  0  0  0  0  0  0  0  0  0
   -8.3199   -5.6925   -0.0000 C   0  0  0  0  0  0  0  0  0  0  0  0
    0.3550   -7.7399   -0.0000 C   0  0  0  0  0  0  0  0  0  0  0  0
   -9.0773   -6.9825   -0.0000 C   0  0  0  0  0  0  0  0  0  0  0  0
  -10.5921   -6.9707   -0.0000 N   0  0  0  0  0  0  0  0  0  0  0  0
  -11.3496   -8.2607   -0.0000 C   0  0  0  0  0  0  0  0  0  0  0  0
  -11.3496   -5.6570   -0.0000 C   0  0  0  0  0  0  0  0  0  0  0  0
  -10.6158   -9.5507   -0.0000 C   0  0  0  0  0  0  0  0  0  0  0  0
  -11.3732  -10.8407   -0.0000 O   0  0  0  0  0  0  0  0  0  0  0  0
  1  2  1  0
  2  3  2  0
  2  4  1  0
  3  5  1  0
  4  6  2  0
  5  7  2  0
  7  8  1  0
  8  9  1  0
  9 10  1  0
  9 11  1  0
 10 12  2  0
 10 13  1  0
 11 14  2  0
 11 15  1  0
 13 16  1  0
 13 17  1  0
 14 18  1  0
 15 19  2  0
 16 20  1  0
 17 21  1  0
 18 22  2  0
 20 23  1  0
 23 24  1  0
 24 25  1  0
 24 26  1  0
 25 27  1  0
 27 28  1  0
  6  7  1  0
 12 14  1  0
 19 22  1  0
 21 23  1  0
M  END
>  <MolRegNo>  (1) 
557620

>  <m>  (1) 
=

>  <Value>  (1) 
35150

>  <Unit>  (1) 
nM

>  <Type>  (1) 
IC50

>  <pValue>  (1) 
4.45

>  <Ligand Efficiency>  (1) 
0

>  <Binding Efficiency>  (1) 
0

>  <Surface Efficiency>  (1) 
0

>  <Assay Index>  (1) 
429822

>  <Assay Category>  (1) 


>  <Assay Organism>  (1) 


>  <Target ID>  (1) 
11365

>  <Target Name>  (1) 
Cytochrome P450 2D6

>  <Target Organism>  (1) 
Homo sapiens

>  <Target Description>  (1) 
Target is a single protein chain

>  <Sequence Accession>  (1) 
P10635

>  <Reference>  (1) 
Bioorg Med Chem Lett 19 (15), 4380-4384 (2009)

>  <Pubmed ID>  (1) 
19553115

>  <DOI>  (1) 
10.1016/j.bmcl.2009.05.086

$$$$
