4wnv_ligand_876
     RDKit          2D

 32 36  0  0  0  0  0  0  0  0999 V2000
    0.0000   -0.0000   -0.0000 F   0  0  0  0  0  0  0  0  0  0  0  0
    1.3206    0.6900   -0.0000 C   0  0  0  0  0  0  0  0  0  0  0  0
    1.3801    2.2129   -0.0000 C   0  0  0  0  0  0  0  0  0  0  0  0
    2.5817   -0.1071   -0.0000 C   0  0  0  0  0  0  0  0  0  0  0  0
    2.7006    2.9029   -0.0000 C   0  0  0  0  0  0  0  0  0  0  0  0
    3.9023    0.5949   -0.0000 C   0  0  0  0  0  0  0  0  0  0  0  0
    3.9498    2.1058   -0.0000 C   0  0  0  0  0  0  0  0  0  0  0  0
    5.2704    2.8077   -0.0000 C   0  0  0  0  0  0  0  0  0  0  0  0
    5.2466    4.3306   -0.0000 N   0  0  0  0  0  0  0  0  0  0  0  0
    6.1270    5.5560   -0.0000 C   0  0  0  0  0  0  0  0  0  0  0  0
    3.7952    4.8064   -0.0000 C   0  0  0  0  0  0  0  0  0  0  0  0
    5.2228    6.7933   -0.0000 N   0  0  0  0  0  0  0  0  0  0  0  0
    7.6142    5.5679   -0.0000 N   0  0  0  0  0  0  0  0  0  0  0  0
    3.7833    6.3293   -0.0000 C   0  0  0  0  0  0  0  0  0  0  0  0
    2.4865    4.0688   -0.0000 C   0  0  0  0  0  0  0  0  0  0  0  0
    8.3518    4.2830   -0.0000 C   0  0  0  0  0  0  0  0  0  0  0  0
    8.3399    6.8884   -0.0000 C   0  0  0  0  0  0  0  0  0  0  0  0
    2.4627    7.0788   -0.0000 C   0  0  0  0  0  0  0  0  0  0  0  0
    1.1778    4.8302   -0.0000 C   0  0  0  0  0  0  0  0  0  0  0  0
    9.8270    4.2949   -0.0000 C   0  0  0  0  0  0  0  0  0  0  0  0
    9.8270    6.8884   -0.0000 C   0  0  0  0  0  0  0  0  0  0  0  0
    1.1540    6.3412   -0.0000 C   0  0  0  0  0  0  0  0  0  0  0  0
   10.5765    5.5916   -0.0000 C   0  0  0  0  0  0  0  0  0  0  0  0
   12.0637    5.6035   -0.0000 N   0  0  0  0  0  0  0  0  0  0  0  0
   12.8013    4.3187   -0.0000 C   0  0  0  0  0  0  0  0  0  0  0  0
   12.8013    6.9122   -0.0000 C   0  0  0  0  0  0  0  0  0  0  0  0
   14.2884    4.3306   -0.0000 C   0  0  0  0  0  0  0  0  0  0  0  0
   15.0261    3.0338   -0.0000 C   0  0  0  0  0  0  0  0  0  0  0  0
   15.0142    5.6392   -0.0000 C   0  0  0  0  0  0  0  0  0  0  0  0
   16.5013    3.0457   -0.0000 C   0  0  0  0  0  0  0  0  0  0  0  0
   16.5132    5.6392   -0.0000 C   0  0  0  0  0  0  0  0  0  0  0  0
   17.2508    4.3543   -0.0000 O   0  0  0  0  0  0  0  0  0  0  0  0
  1  2  1  0
  2  3  2  0
  2  4  1  0
  3  5  1  0
  4  6  2  0
  5  7  2  0
  7  8  1  0
  8  9  1  0
  9 10  1  0
  9 11  1  0
 10 12  2  0
 10 13  1  0
 11 14  2  0
 11 15  1  0
 13 16  1  0
 13 17  1  0
 14 18  1  0
 15 19  2  0
 16 20  1  0
 17 21  1  0
 18 22  2  0
 20 23  1  0
 23 24  1  0
 24 25  1  0
 24 26  1  0
 25 27  1  0
 27 28  1  0
 27 29  1  0
 28 30  1  0
 29 31  1  0
 30 32  1  0
  6  7  1  0
 12 14  1  0
 19 22  1  0
 21 23  1  0
 31 32  1  0
M  END
>  <MolRegNo>  (1) 
561148

>  <m>  (1) 
=

>  <Value>  (1) 
11017

>  <Unit>  (1) 
nM

>  <Type>  (1) 
IC50

>  <pValue>  (1) 
4.96

>  <Ligand Efficiency>  (1) 
0

>  <Binding Efficiency>  (1) 
0

>  <Surface Efficiency>  (1) 
0

>  <Assay Index>  (1) 
429822

>  <Assay Category>  (1) 


>  <Assay Organism>  (1) 


>  <Target ID>  (1) 
11365

>  <Target Name>  (1) 
Cytochrome P450 2D6

>  <Target Organism>  (1) 
Homo sapiens

>  <Target Description>  (1) 
Target is a single protein chain

>  <Sequence Accession>  (1) 
P10635

>  <Reference>  (1) 
Bioorg Med Chem Lett 19 (15), 4380-4384 (2009)

>  <Pubmed ID>  (1) 
19553115

>  <DOI>  (1) 
10.1016/j.bmcl.2009.05.086

$$$$
