4wnv_ligand_789
     RDKit          2D

 28 32  0  0  0  0  0  0  0  0999 V2000
    0.0000   -0.0000   -0.0000 O   0  0  0  0  0  0  0  0  0  0  0  0
   -1.0449    1.0919   -0.0000 C   0  0  0  0  0  0  0  0  0  0  0  0
   -2.5126    0.7397   -0.0000 N   0  0  0  0  0  0  0  0  0  0  0  0
   -0.6458    2.5360   -0.0000 C   0  0  0  0  0  0  0  0  0  0  0  0
   -3.0879   -0.6340   -0.0000 C   0  0  0  0  0  0  0  0  0  0  0  0
   -3.6632    1.7142   -0.0000 C   0  0  0  0  0  0  0  0  0  0  0  0
    0.7984    2.9118   -0.0000 C   0  0  0  0  0  0  0  0  0  0  0  0
   -1.6907    3.6280   -0.0000 C   0  0  0  0  0  0  0  0  0  0  0  0
   -4.5907   -0.5166   -0.0000 C   0  0  0  0  0  0  0  0  0  0  0  0
   -4.9429    0.9393   -0.0000 C   0  0  0  0  0  0  0  0  0  0  0  0
    1.1976    4.3559   -0.0000 C   0  0  0  0  0  0  0  0  0  0  0  0
   -1.2915    5.0721   -0.0000 C   0  0  0  0  0  0  0  0  0  0  0  0
    0.1526    5.4478   -0.0000 C   0  0  0  0  0  0  0  0  0  0  0  0
    0.5518    6.8919   -0.0000 C   0  0  0  0  0  0  0  0  0  0  0  0
   -0.4931    7.9838   -0.0000 C   0  0  0  0  0  0  0  0  0  0  0  0
    1.9960    7.2676   -0.0000 C   0  0  0  0  0  0  0  0  0  0  0  0
   -0.0939    9.4280   -0.0000 C   0  0  0  0  0  0  0  0  0  0  0  0
   -1.9607    7.6316   -0.0000 C   0  0  0  0  0  0  0  0  0  0  0  0
    2.3952    8.7118   -0.0000 C   0  0  0  0  0  0  0  0  0  0  0  0
    1.3502    9.8037   -0.0000 O   0  0  0  0  0  0  0  0  0  0  0  0
   -1.1389   10.5199   -0.0000 C   0  0  0  0  0  0  0  0  0  0  0  0
   -3.0057    8.7235   -0.0000 C   0  0  0  0  0  0  0  0  0  0  0  0
    2.7943   10.1559   -0.0000 C   0  0  0  0  0  0  0  0  0  0  0  0
    3.4166    7.6434   -0.0000 C   0  0  0  0  0  0  0  0  0  0  0  0
   -2.6065   10.1677   -0.0000 C   0  0  0  0  0  0  0  0  0  0  0  0
    4.2385   10.5316   -0.0000 C   0  0  0  0  0  0  0  0  0  0  0  0
    4.8607    8.0191   -0.0000 C   0  0  0  0  0  0  0  0  0  0  0  0
    5.2599    9.4632   -0.0000 N   0  0  0  0  0  0  0  0  0  0  0  0
  1  2  2  0
  2  3  1  0
  2  4  1  0
  3  5  1  0
  3  6  1  0
  4  7  2  0
  4  8  1  0
  5  9  1  0
  6 10  1  0
  7 11  1  0
  8 12  2  0
 11 13  2  0
 13 14  1  0
 14 15  1  0
 14 16  2  0
 15 17  2  0
 15 18  1  0
 16 19  1  0
 17 20  1  0
 17 21  1  0
 18 22  2  0
 19 23  1  0
 19 24  1  0
 21 25  2  0
 23 26  1  0
 24 27  1  0
 26 28  1  0
  9 10  1  0
 12 13  1  0
 19 20  1  0
 22 25  1  0
 27 28  1  0
M  END
>  <MolRegNo>  (1) 
566216

>  <m>  (1) 
=

>  <Value>  (1) 
4700

>  <Unit>  (1) 
nM

>  <Type>  (1) 
IC50

>  <pValue>  (1) 
5.33

>  <Ligand Efficiency>  (1) 
0

>  <Binding Efficiency>  (1) 
0

>  <Surface Efficiency>  (1) 
0

>  <Assay Index>  (1) 
428577

>  <Assay Category>  (1) 


>  <Assay Organism>  (1) 
Homo sapiens

>  <Target ID>  (1) 
11365

>  <Target Name>  (1) 
Cytochrome P450 2D6

>  <Target Organism>  (1) 
Homo sapiens

>  <Target Description>  (1) 
Target is a single protein chain

>  <Sequence Accession>  (1) 
P10635

>  <Reference>  (1) 
J Med Chem 52 (18), 5685-5702 (2009)

>  <Pubmed ID>  (1) 
19694468

>  <DOI>  (1) 
10.1021/jm900773n

$$$$
