4wnv_ligand_610
     RDKit          2D

 37 41  0  0  0  0  0  0  0  0999 V2000
    0.0000   -0.0000   -0.0000 F   0  0  0  0  0  0  0  0  0  0  0  0
   -0.0237    1.5184   -0.0000 C   0  0  0  0  0  0  0  0  0  0  0  0
   -1.3523    2.2775   -0.0000 C   0  0  0  0  0  0  0  0  0  0  0  0
    1.2574    2.2894   -0.0000 C   0  0  0  0  0  0  0  0  0  0  0  0
   -1.3641    3.7959   -0.0000 C   0  0  0  0  0  0  0  0  0  0  0  0
   -2.6690    1.5302   -0.0000 C   0  0  0  0  0  0  0  0  0  0  0  0
    1.2337    3.8077   -0.0000 C   0  0  0  0  0  0  0  0  0  0  0  0
   -0.0712    4.5551   -0.0000 C   0  0  0  0  0  0  0  0  0  0  0  0
   -3.9975    0.8066   -0.0000 C   0  0  0  0  0  0  0  0  0  0  0  0
   -1.9335    0.2372   -0.0000 C   0  0  0  0  0  0  0  0  0  0  0  0
   -3.4282    2.8469   -0.0000 C   0  0  0  0  0  0  0  0  0  0  0  0
    2.5266    4.5788   -0.0000 C   0  0  0  0  0  0  0  0  0  0  0  0
   -5.3142    0.0712   -0.0000 N   0  0  0  0  0  0  0  0  0  0  0  0
    3.8196    3.8433   -0.0000 C   0  0  0  0  0  0  0  0  0  0  0  0
    5.1126    4.6144   -0.0000 C   0  0  0  0  0  0  0  0  0  0  0  0
    6.3937    3.8789   -0.0000 O   0  0  0  0  0  0  0  0  0  0  0  0
    5.0889    3.1197   -0.0000 C   0  0  0  0  0  0  0  0  0  0  0  0
    5.1007    6.1327   -0.0000 C   0  0  0  0  0  0  0  0  0  0  0  0
    7.6748    4.6381   -0.0000 C   0  0  0  0  0  0  0  0  0  0  0  0
    3.8552    2.2538   -0.0000 C   0  0  0  0  0  0  0  0  0  0  0  0
    6.2869    2.2419   -0.0000 C   0  0  0  0  0  0  0  0  0  0  0  0
    6.3818    6.9038   -0.0000 C   0  0  0  0  0  0  0  0  0  0  0  0
    8.9678    3.8908   -0.0000 O   0  0  0  0  0  0  0  0  0  0  0  0
    7.6629    6.1564   -0.0000 C   0  0  0  0  0  0  0  0  0  0  0  0
    4.3060    0.8303   -0.0000 C   0  0  0  0  0  0  0  0  0  0  0  0
    5.8006    0.8303   -0.0000 C   0  0  0  0  0  0  0  0  0  0  0  0
    6.3700    8.4221   -0.0000 O   0  0  0  0  0  0  0  0  0  0  0  0
    8.9559    6.9156   -0.0000 C   0  0  0  0  0  0  0  0  0  0  0  0
   10.2489    6.1683   -0.0000 C   0  0  0  0  0  0  0  0  0  0  0  0
   10.3912    4.6855   -0.0000 N   0  0  0  0  0  0  0  0  0  0  0  0
   11.6130    6.7970   -0.0000 C   0  0  0  0  0  0  0  0  0  0  0  0
   11.8503    4.3890   -0.0000 C   0  0  0  0  0  0  0  0  0  0  0  0
   12.6094    5.6820   -0.0000 N   0  0  0  0  0  0  0  0  0  0  0  0
   12.5739    3.0960   -0.0000 C   0  0  0  0  0  0  0  0  0  0  0  0
   14.0922    5.6820   -0.0000 C   0  0  0  0  0  0  0  0  0  0  0  0
   14.0685    3.0960   -0.0000 C   0  0  0  0  0  0  0  0  0  0  0  0
   14.8277    4.4009   -0.0000 C   0  0  0  0  0  0  0  0  0  0  0  0
  1  2  1  0
  2  3  2  0
  2  4  1  0
  3  5  1  0
  3  6  1  0
  4  7  2  0
  5  8  2  0
  6  9  1  0
  6 10  1  0
  6 11  1  0
  7 12  1  0
  9 13  3  0
 12 14  1  0
 14 15  1  0
 15 16  1  0
 15 17  1  0
 15 18  1  0
 16 19  1  0
 17 20  1  0
 17 21  1  0
 18 22  1  0
 19 23  2  0
 19 24  1  0
 20 25  1  0
 21 26  1  0
 22 27  1  0
 24 28  1  0
 28 29  1  0
 29 30  1  0
 29 31  2  0
 30 32  2  0
 31 33  1  0
 32 34  1  0
 33 35  1  0
 34 36  2  0
 35 37  2  0
  7  8  1  0
 22 24  2  0
 25 26  1  0
 32 33  1  0
 36 37  1  0
M  END
>  <MolRegNo>  (1) 
455805

>  <m>  (1) 
=

>  <Value>  (1) 
700

>  <Unit>  (1) 
nM

>  <Type>  (1) 
IC50

>  <pValue>  (1) 
6.16

>  <Ligand Efficiency>  (1) 
0

>  <Binding Efficiency>  (1) 
0

>  <Surface Efficiency>  (1) 
0

>  <Assay Index>  (1) 
363775

>  <Assay Category>  (1) 


>  <Assay Organism>  (1) 
Homo sapiens

>  <Target ID>  (1) 
11365

>  <Target Name>  (1) 
Cytochrome P450 2D6

>  <Target Organism>  (1) 
Homo sapiens

>  <Target Description>  (1) 
Target is a single protein chain

>  <Sequence Accession>  (1) 
P10635

>  <Reference>  (1) 
J Med Chem 52 (5), 1255-1258 (2009)

>  <Pubmed ID>  (1) 
19209845

>  <DOI>  (1) 
10.1021/jm8014537

$$$$
