4wnv_ligand_441
     RDKit          2D

 43 47  0  0  1  0  0  0  0  0999 V2000
    0.0000   -0.0000   -0.0000 S   0  0  0  0  0  0  0  0  0  0  0  0
    1.2032    0.8935   -0.0000 C   0  0  0  0  0  0  0  0  0  0  0  0
    0.4527   -1.4176   -0.0000 C   0  0  0  0  0  0  0  0  0  0  0  0
    2.4064    0.0357   -0.0000 N   0  0  0  0  0  0  0  0  0  0  0  0
    1.1913    2.4064   -0.0000 N   0  0  0  0  0  0  0  0  0  0  0  0
    1.9418   -1.4057   -0.0000 C   0  0  0  0  0  0  0  0  0  0  0  0
   -0.3336   -2.6804   -0.0000 C   0  0  0  0  0  0  0  0  0  0  0  0
   -0.1191    3.1807   -0.0000 C   0  0  0  0  0  0  0  0  0  0  0  0
    2.8114   -2.5970   -0.0000 C   0  0  0  0  0  0  0  0  0  0  0  0
   -1.8465   -2.6447   -0.0000 O   0  0  0  0  0  0  0  0  0  0  0  0
    0.3812   -3.9789   -0.0000 C   0  0  0  0  0  0  0  0  0  0  0  0
   -1.4295    2.4421   -0.0000 O   0  0  0  0  0  0  0  0  0  0  0  0
   -0.1310    4.6937   -0.0000 N   0  0  0  0  0  0  0  0  0  0  0  0
   -1.4415    5.4561   -0.0000 C   0  0  0  0  0  0  0  0  0  0  0  0
   -1.4534    6.9690   -0.0000 C   0  0  0  0  0  0  0  0  0  0  0  0
   -2.7519    4.7294   -0.0000 C   0  0  0  0  0  0  0  0  0  0  0  0
   -2.7638    7.7434   -0.0000 C   0  0  0  0  0  0  0  0  0  0  0  0
   -0.1549    7.7315   -0.0000 C   0  0  0  0  0  0  0  0  0  0  0  0
   -4.0623    5.4799   -0.0000 C   0  0  0  0  0  0  0  0  0  0  0  0
   -4.0742    6.9929   -0.0000 N   0  0  0  0  0  0  0  0  0  0  0  0
    1.1317    6.9809   -0.0000 N   0  0  0  0  0  0  0  0  0  0  0  0
   -5.3846    7.7434   -0.0000 C   0  0  0  0  0  0  0  0  0  0  0  0
    2.4183    7.7434   -0.0000 C   0  0  0  0  0  0  0  0  0  0  0  0
    1.1198    5.4799   -0.0000 C   0  0  0  0  0  0  0  0  0  0  0  0
   -6.6831    6.9929   -0.0000 C   0  0  0  0  0  0  0  0  0  0  0  0
   -5.4084    9.2444   -0.0000 C   0  0  0  0  0  0  0  0  0  0  0  0
    3.7049    6.9929   -0.0000 C   0  0  0  0  0  0  0  0  0  0  0  0
    2.4064    4.7413   -0.0000 C   0  0  0  0  0  0  0  0  0  0  0  0
   -7.9935    7.7434   -0.0000 C   0  0  0  0  0  0  0  0  0  0  0  0
   -6.7189   10.0068   -0.0000 C   0  0  0  0  0  0  0  0  0  0  0  0
    3.6811    5.5038   -0.0000 C   0  0  0  0  0  0  0  0  0  0  0  0
    5.0034    7.7553   -0.0000 C   0  0  0  0  0  0  0  0  0  0  0  0
   -8.0174    9.2563   -0.0000 N   0  0  0  0  0  0  0  0  0  0  0  0
    6.2900    7.0048   -0.0000 C   0  0  0  0  0  0  0  0  0  0  0  0
   -9.3278   10.0068   -0.0000 C   0  0  0  0  0  0  0  0  0  0  0  0
    6.2543    5.5157   -0.0000 C   0  0  0  0  0  0  0  0  0  0  0  0
    7.5766    7.7672   -0.0000 C   0  0  0  0  0  0  0  0  0  0  0  0
   -9.3516   11.5198   -0.0000 O   0  0  0  0  0  0  0  0  0  0  0  0
  -10.6263    9.2563   -0.0000 C   0  0  0  0  0  0  0  0  0  0  0  0
    7.5409    4.7771   -0.0000 C   0  0  0  0  0  0  0  0  0  0  0  0
    8.8632    7.0167   -0.0000 C   0  0  0  0  0  0  0  0  0  0  0  0
    8.8394    5.5276   -0.0000 C   0  0  0  0  0  0  0  0  0  0  0  0
   10.1259    4.7890   -0.0000 F   0  0  0  0  0  0  0  0  0  0  0  0
  1  2  1  0
  1  3  1  0
  2  4  2  0
  2  5  1  0
  3  6  2  0
  3  7  1  0
  5  8  1  0
  6  9  1  0
  7 10  2  0
  7 11  1  0
  8 12  2  0
  8 13  1  0
 14 13  1  6
 14 15  1  0
 14 16  1  0
 15 17  1  0
 15 18  1  1
 16 19  1  0
 17 20  1  0
 18 21  1  0
 20 22  1  0
 21 23  1  0
 21 24  1  0
 22 25  1  0
 22 26  1  0
 23 27  1  0
 24 28  1  0
 25 29  1  0
 26 30  1  0
 27 31  1  0
 27 32  1  6
 29 33  1  0
 32 34  1  0
 33 35  1  0
 34 36  2  0
 34 37  1  0
 35 38  2  0
 35 39  1  0
 36 40  1  0
 37 41  2  0
 40 42  2  0
 42 43  1  0
  4  6  1  0
 19 20  1  0
 28 31  1  0
 30 33  1  0
 41 42  1  0
M  END
>  <MolRegNo>  (1) 
421500

>  <m>  (1) 
=

>  <Value>  (1) 
36000

>  <Unit>  (1) 
nM

>  <Type>  (1) 
IC50

>  <pValue>  (1) 
4.44

>  <Ligand Efficiency>  (1) 
0

>  <Binding Efficiency>  (1) 
0

>  <Surface Efficiency>  (1) 
0

>  <Assay Index>  (1) 
307824

>  <Assay Category>  (1) 


>  <Assay Organism>  (1) 
Homo sapiens

>  <Target ID>  (1) 
11365

>  <Target Name>  (1) 
Cytochrome P450 2D6

>  <Target Organism>  (1) 
Homo sapiens

>  <Target Description>  (1) 
Target is a single protein chain

>  <Sequence Accession>  (1) 
P10635

>  <Reference>  (1) 
Bioorg Med Chem Lett 17 (11), 2992-2997 (2007)

>  <Pubmed ID>  (1) 
17418570

>  <DOI>  (1) 
10.1016/j.bmcl.2007.03.065

$$$$
