4wnv_ligand_337
     RDKit          2D

 27 29  0  0  1  0  0  0  0  0999 V2000
    0.0000   -0.0000   -0.0000 S   0  0  0  0  0  0  0  0  0  0  0  0
    0.1547   -1.4878   -0.0000 C   0  0  0  0  0  0  0  0  0  0  0  0
   -1.4759    0.3214   -0.0000 C   0  0  0  0  0  0  0  0  0  0  0  0
   -1.2379   -2.0829   -0.0000 N   0  0  0  0  0  0  0  0  0  0  0  0
    1.4402   -2.2258   -0.0000 N   0  0  0  0  0  0  0  0  0  0  0  0
   -2.2377   -0.9641   -0.0000 C   0  0  0  0  0  0  0  0  0  0  0  0
    2.7257   -1.4640   -0.0000 C   0  0  0  0  0  0  0  0  0  0  0  0
    2.7138    0.0476   -0.0000 O   0  0  0  0  0  0  0  0  0  0  0  0
    4.0112   -2.2020   -0.0000 C   0  0  0  0  0  0  0  0  0  0  0  0
    5.2966   -1.4402   -0.0000 C   0  0  0  0  0  0  0  0  0  0  0  0
    5.2847    0.0714   -0.0000 O   0  0  0  0  0  0  0  0  0  0  0  0
    6.5821   -2.1782   -0.0000 N   0  0  0  0  0  0  0  0  0  0  0  0
    7.8676   -1.4164   -0.0000 C   0  0  0  0  0  0  0  0  0  0  0  0
    6.5702   -3.6660   -0.0000 C   0  0  0  0  0  0  0  0  0  0  0  0
    7.8557    0.0952   -0.0000 C   0  0  0  0  0  0  0  0  0  0  0  0
    9.1531   -2.1544   -0.0000 C   0  0  0  0  0  0  0  0  0  0  0  0
    6.5464    0.8570   -0.0000 C   0  0  0  0  0  0  0  0  0  0  0  0
    9.1531    0.8570   -0.0000 C   0  0  0  0  0  0  0  0  0  0  0  0
   10.4385   -1.3926   -0.0000 N   0  0  0  0  0  0  0  0  0  0  0  0
    6.5345    2.3805   -0.0000 C   0  0  0  0  0  0  0  0  0  0  0  0
    9.1412    2.3805   -0.0000 C   0  0  0  0  0  0  0  0  0  0  0  0
   11.7954   -1.9877   -0.0000 C   0  0  0  0  0  0  0  0  0  0  0  0
   10.5814    0.1190   -0.0000 C   0  0  0  0  0  0  0  0  0  0  0  0
    7.8200    3.1423   -0.0000 C   0  0  0  0  0  0  0  0  0  0  0  0
   12.7833   -0.8570   -0.0000 C   0  0  0  0  0  0  0  0  0  0  0  0
   12.0335    0.4404   -0.0000 C   0  0  0  0  0  0  0  0  0  0  0  0
   14.2593   -0.9998   -0.0000 O   0  0  0  0  0  0  0  0  0  0  0  0
  1  2  1  0
  1  3  1  0
  2  4  2  0
  2  5  1  0
  3  6  2  0
  5  7  1  0
  7  8  2  0
  7  9  1  0
  9 10  1  0
 10 11  2  0
 10 12  1  0
 13 12  1  0
 12 14  1  0
 13 15  1  0
 13 16  1  1
 15 17  2  0
 15 18  1  0
 16 19  1  0
 17 20  1  0
 18 21  2  0
 19 22  1  0
 19 23  1  0
 20 24  2  0
 22 25  1  0
 23 26  1  0
 25 27  1  6
  4  6  1  0
 21 24  1  0
 25 26  1  0
M  END
>  <MolRegNo>  (1) 
384334

>  <m>  (1) 
=

>  <Value>  (1) 
700

>  <Unit>  (1) 
nM

>  <Type>  (1) 
IC50

>  <pValue>  (1) 
6.16

>  <Ligand Efficiency>  (1) 
0

>  <Binding Efficiency>  (1) 
0

>  <Surface Efficiency>  (1) 
0

>  <Assay Index>  (1) 
287299

>  <Assay Category>  (1) 


>  <Assay Organism>  (1) 


>  <Target ID>  (1) 
11365

>  <Target Name>  (1) 
Cytochrome P450 2D6

>  <Target Organism>  (1) 
Homo sapiens

>  <Target Description>  (1) 
Target is a single protein chain

>  <Sequence Accession>  (1) 
P10635

>  <Reference>  (1) 
Bioorg Med Chem Lett 17 (7), 1951-1955 (2007)

>  <Pubmed ID>  (1) 
17307360

>  <DOI>  (1) 
10.1016/j.bmcl.2007.01.053

$$$$
