4wnv_ligand_500
     RDKit          2D

 35 37  0  0  1  0  0  0  0  0999 V2000
    0.0000   -0.0000   -0.0000 F   0  0  0  0  0  0  0  0  0  0  0  0
    1.4934   -0.0000   -0.0000 C   0  0  0  0  0  0  0  0  0  0  0  0
    2.2282   -1.2919   -0.0000 C   0  0  0  0  0  0  0  0  0  0  0  0
    2.2401    1.3038   -0.0000 C   0  0  0  0  0  0  0  0  0  0  0  0
    3.7217   -1.2919   -0.0000 C   0  0  0  0  0  0  0  0  0  0  0  0
    3.7217    1.3156   -0.0000 C   0  0  0  0  0  0  0  0  0  0  0  0
    4.4684    0.0237   -0.0000 C   0  0  0  0  0  0  0  0  0  0  0  0
    5.9618    0.0356   -0.0000 C   0  0  0  0  0  0  0  0  0  0  0  0
    6.7085    1.3512   -0.0000 C   0  0  0  0  0  0  0  0  0  0  0  0
    8.2019    1.3630   -0.0000 C   0  0  0  0  0  0  0  0  0  0  0  0
    5.9380    2.6668   -0.0000 C   0  0  0  0  0  0  0  0  0  0  0  0
    8.9486    2.6668   -0.0000 N   0  0  0  0  0  0  0  0  0  0  0  0
    6.6847    3.9824   -0.0000 C   0  0  0  0  0  0  0  0  0  0  0  0
   10.4420    2.6668   -0.0000 C   0  0  0  0  0  0  0  0  0  0  0  0
    8.1900    3.9824   -0.0000 C   0  0  0  0  0  0  0  0  0  0  0  0
   11.1887    3.9824   -0.0000 O   0  0  0  0  0  0  0  0  0  0  0  0
   11.1768    1.3749   -0.0000 C   0  0  0  0  0  0  0  0  0  0  0  0
   12.6702    1.3749   -0.0000 C   0  0  0  0  0  0  0  0  0  0  0  0
   13.4169    2.6905   -0.0000 N   0  0  0  0  0  0  0  0  0  0  0  0
   13.4051    0.0830   -0.0000 C   0  0  0  0  0  0  0  0  0  0  0  0
   14.9103    2.6905   -0.0000 C   0  0  0  0  0  0  0  0  0  0  0  0
   15.6452    1.3986   -0.0000 O   0  0  0  0  0  0  0  0  0  0  0  0
   15.6570    4.0061   -0.0000 N   0  0  0  0  0  0  0  0  0  0  0  0
   17.1504    4.0061   -0.0000 C   0  0  0  0  0  0  0  0  0  0  0  0
   17.8853    5.3217   -0.0000 C   0  0  0  0  0  0  0  0  0  0  0  0
   17.8734    2.7142   -0.0000 C   0  0  0  0  0  0  0  0  0  0  0  0
   19.3787    5.3336   -0.0000 C   0  0  0  0  0  0  0  0  0  0  0  0
   19.3668    2.7142   -0.0000 C   0  0  0  0  0  0  0  0  0  0  0  0
   20.1254    6.6492   -0.0000 C   0  0  0  0  0  0  0  0  0  0  0  0
   20.1254    4.0298   -0.0000 C   0  0  0  0  0  0  0  0  0  0  0  0
   20.1135    1.4223   -0.0000 C   0  0  0  0  0  0  0  0  0  0  0  0
   19.3668    7.9648   -0.0000 O   0  0  0  0  0  0  0  0  0  0  0  0
   21.6188    6.6610   -0.0000 C   0  0  0  0  0  0  0  0  0  0  0  0
   21.6069    1.4341   -0.0000 O   0  0  0  0  0  0  0  0  0  0  0  0
   19.3550    0.1304   -0.0000 C   0  0  0  0  0  0  0  0  0  0  0  0
  1  2  1  0
  2  3  2  0
  2  4  1  0
  3  5  1  0
  4  6  2  0
  5  7  2  0
  7  8  1  0
  9  8  1  6
  9 10  1  0
  9 11  1  0
 10 12  1  0
 11 13  1  0
 12 14  1  0
 12 15  1  0
 14 16  1  1
 14 17  1  0
 17 18  1  0
 18 19  1  0
 18 20  1  1
 19 21  1  0
 21 22  2  0
 21 23  1  0
 23 24  1  0
 24 25  2  0
 24 26  1  0
 25 27  1  0
 26 28  2  0
 27 29  1  0
 27 30  2  0
 28 31  1  0
 29 32  2  0
 29 33  1  0
 31 34  2  0
 31 35  1  0
  6  7  1  0
 13 15  1  0
 28 30  1  0
M  END
>  <MolRegNo>  (1) 
438173

>  <m>  (1) 
=

>  <Value>  (1) 
16000

>  <Unit>  (1) 
nM

>  <Type>  (1) 
IC50

>  <pValue>  (1) 
4.8

>  <Ligand Efficiency>  (1) 
0

>  <Binding Efficiency>  (1) 
0

>  <Surface Efficiency>  (1) 
0

>  <Assay Index>  (1) 
314783

>  <Assay Category>  (1) 


>  <Assay Organism>  (1) 


>  <Target ID>  (1) 
11365

>  <Target Name>  (1) 
Cytochrome P450 2D6

>  <Target Organism>  (1) 
Homo sapiens

>  <Target Description>  (1) 
Target is a single protein chain

>  <Sequence Accession>  (1) 
P10635

>  <Reference>  (1) 
Bioorg Med Chem Lett 18 (2), 576-585 (2008)

>  <Pubmed ID>  (1) 
18096386

>  <DOI>  (1) 
10.1016/j.bmcl.2007.11.067

$$$$
