4wnv_ligand_937
     RDKit          2D

 34 37  0  0  1  0  0  0  0  0999 V2000
    0.0000   -0.0000   -0.0000 F   0  0  0  0  0  0  0  0  0  0  0  0
   -1.3078   -0.7490   -0.0000 C   0  0  0  0  0  0  0  0  0  0  0  0
   -1.3197   -2.2352   -0.0000 F   0  0  0  0  0  0  0  0  0  0  0  0
   -0.0238   -1.4862   -0.0000 F   0  0  0  0  0  0  0  0  0  0  0  0
   -2.6276    0.0119   -0.0000 O   0  0  0  0  0  0  0  0  0  0  0  0
   -3.9354   -0.7371   -0.0000 C   0  0  0  0  0  0  0  0  0  0  0  0
   -5.2432    0.0238   -0.0000 C   0  0  0  0  0  0  0  0  0  0  0  0
   -3.9473   -2.2352   -0.0000 C   0  0  0  0  0  0  0  0  0  0  0  0
   -6.5511   -0.7134   -0.0000 C   0  0  0  0  0  0  0  0  0  0  0  0
   -5.2670   -2.9724   -0.0000 C   0  0  0  0  0  0  0  0  0  0  0  0
   -6.5630   -2.2114   -0.0000 C   0  0  0  0  0  0  0  0  0  0  0  0
   -7.8589    0.0476   -0.0000 C   0  0  0  0  0  0  0  0  0  0  0  0
   -9.1668   -0.6896   -0.0000 N   0  0  0  0  0  0  0  0  0  0  0  0
  -10.4746    0.0713   -0.0000 C   0  0  0  0  0  0  0  0  0  0  0  0
   -9.1787   -2.1758   -0.0000 C   0  0  0  0  0  0  0  0  0  0  0  0
  -10.4865    1.5813   -0.0000 O   0  0  0  0  0  0  0  0  0  0  0  0
  -11.7824   -0.6658   -0.0000 C   0  0  0  0  0  0  0  0  0  0  0  0
   -7.9659   -3.0437   -0.0000 C   0  0  0  0  0  0  0  0  0  0  0  0
  -10.4033   -3.0437   -0.0000 C   0  0  0  0  0  0  0  0  0  0  0  0
  -13.0308    0.2021   -0.0000 N   0  0  0  0  0  0  0  0  0  0  0  0
  -12.2461   -2.0925   -0.0000 C   0  0  0  0  0  0  0  0  0  0  0  0
   -8.4415   -4.4585   -0.0000 C   0  0  0  0  0  0  0  0  0  0  0  0
   -9.9396   -4.4585   -0.0000 C   0  0  0  0  0  0  0  0  0  0  0  0
  -14.2436   -0.6896   -0.0000 C   0  0  0  0  0  0  0  0  0  0  0  0
  -13.7561   -2.1044   -0.0000 N   0  0  0  0  0  0  0  0  0  0  0  0
   -8.0016   -5.8734   -0.0000 C   0  0  0  0  0  0  0  0  0  0  0  0
  -10.4152   -5.8734   -0.0000 C   0  0  0  0  0  0  0  0  0  0  0  0
  -14.6359   -3.3172   -0.0000 C   0  0  0  0  0  0  0  0  0  0  0  0
   -9.2262   -6.7294   -0.0000 N   0  0  0  0  0  0  0  0  0  0  0  0
   -9.2500   -8.2156   -0.0000 C   0  0  0  0  0  0  0  0  0  0  0  0
  -10.5697   -8.9528   -0.0000 C   0  0  0  0  0  0  0  0  0  0  0  0
  -11.8776   -8.1799   -0.0000 O   0  0  0  0  0  0  0  0  0  0  0  0
  -11.8895   -9.6780   -0.0000 C   0  0  0  0  0  0  0  0  0  0  0  0
  -10.5935  -10.4389   -0.0000 C   0  0  0  0  0  0  0  0  0  0  0  0
  1  2  1  0
  2  3  1  0
  2  4  1  0
  2  5  1  0
  5  6  1  0
  6  7  2  0
  6  8  1  0
  7  9  1  0
  8 10  2  0
  9 11  2  0
  9 12  1  0
 12 13  1  0
 13 14  1  0
 15 13  1  1
 14 16  2  0
 14 17  1  0
 15 18  1  0
 15 19  1  0
 17 20  1  0
 17 21  2  0
 22 18  1  1
 23 19  1  1
 20 24  2  0
 21 25  1  0
 22 26  1  0
 23 27  1  0
 25 28  1  0
 26 29  1  0
 29 30  1  0
 30 31  1  0
 31 32  1  0
 31 33  1  0
 31 34  1  0
 10 11  1  0
 22 23  1  0
 24 25  1  0
 27 29  1  0
M  END
>  <MolRegNo>  (1) 
600582

>  <m>  (1) 
=

>  <Value>  (1) 
1100

>  <Unit>  (1) 
nM

>  <Type>  (1) 
IC50

>  <pValue>  (1) 
5.96

>  <Ligand Efficiency>  (1) 
0

>  <Binding Efficiency>  (1) 
0

>  <Surface Efficiency>  (1) 
0

>  <Assay Index>  (1) 
457653

>  <Assay Category>  (1) 


>  <Assay Organism>  (1) 


>  <Target ID>  (1) 
11365

>  <Target Name>  (1) 
Cytochrome P450 2D6

>  <Target Organism>  (1) 
Homo sapiens

>  <Target Description>  (1) 
Target is a single protein chain

>  <Sequence Accession>  (1) 
P10635

>  <Reference>  (1) 
Bioorg Med Chem Lett 20 (3), 907-911 (2010)

>  <Pubmed ID>  (1) 
20045321

>  <DOI>  (1) 
10.1016/j.bmcl.2009.12.071

$$$$
