4wnv_ligand_112
     RDKit          2D

 20 21  0  0  1  0  0  0  0  0999 V2000
    0.0000   -0.0000   -0.0000 O   0  0  0  0  0  0  0  0  0  0  0  0
    0.0000   -1.4835   -0.0000 C   0  0  0  0  0  0  0  0  0  0  0  0
    1.2921    0.7657   -0.0000 C   0  0  0  0  0  0  0  0  0  0  0  0
   -1.3040   -2.2372   -0.0000 C   0  0  0  0  0  0  0  0  0  0  0  0
    1.2801   -2.2252   -0.0000 C   0  0  0  0  0  0  0  0  0  0  0  0
    2.5722    0.0239   -0.0000 C   0  0  0  0  0  0  0  0  0  0  0  0
   -1.3160   -3.7207   -0.0000 C   0  0  0  0  0  0  0  0  0  0  0  0
   -2.6200   -1.4715   -0.0000 C   0  0  0  0  0  0  0  0  0  0  0  0
    1.2921   -3.7327   -0.0000 C   0  0  0  0  0  0  0  0  0  0  0  0
    2.5602   -1.4715   -0.0000 O   0  0  0  0  0  0  0  0  0  0  0  0
    3.8643    0.8016   -0.0000 C   0  0  0  0  0  0  0  0  0  0  0  0
   -0.0239   -4.4624   -0.0000 C   0  0  0  0  0  0  0  0  0  0  0  0
   -2.6320   -4.4744   -0.0000 C   0  0  0  0  0  0  0  0  0  0  0  0
   -3.9360   -2.2133   -0.0000 C   0  0  0  0  0  0  0  0  0  0  0  0
    5.1444    0.0598   -0.0000 N   0  0  0  0  0  0  0  0  0  0  0  0
    3.8403    2.3090   -0.0000 C   0  0  0  0  0  0  0  0  0  0  0  0
   -3.9480   -3.7087   -0.0000 C   0  0  0  0  0  0  0  0  0  0  0  0
    6.4364    0.8255   -0.0000 C   0  0  0  0  0  0  0  0  0  0  0  0
    7.7285    0.0957   -0.0000 C   0  0  0  0  0  0  0  0  0  0  0  0
    6.4125    2.3449   -0.0000 C   0  0  0  0  0  0  0  0  0  0  0  0
  1  2  1  0
  1  3  1  0
  2  4  2  0
  2  5  1  0
  3  6  1  0
  4  7  1  0
  4  8  1  0
  5  9  2  0
  6 10  1  0
  6 11  1  0
  7 12  2  0
  7 13  1  0
  8 14  2  0
 11 15  1  0
 11 16  1  6
 13 17  2  0
 15 18  1  0
 18 19  1  0
 18 20  1  0
  9 12  1  0
 14 17  1  0
M  END
>  <MolRegNo>  (1) 
301236

>  <m>  (1) 
=

>  <Value>  (1) 
3800

>  <Unit>  (1) 
nM

>  <Type>  (1) 
IC50

>  <pValue>  (1) 
5.42

>  <Ligand Efficiency>  (1) 
0

>  <Binding Efficiency>  (1) 
0

>  <Surface Efficiency>  (1) 
0

>  <Assay Index>  (1) 
238811

>  <Assay Category>  (1) 


>  <Assay Organism>  (1) 
Homo sapiens

>  <Target ID>  (1) 
11365

>  <Target Name>  (1) 
Cytochrome P450 2D6

>  <Target Organism>  (1) 
Homo sapiens

>  <Target Description>  (1) 
Target is a single protein chain

>  <Sequence Accession>  (1) 
P10635

>  <Reference>  (1) 
Bioorg Med Chem Lett 15 (17), 3816-3820 (2005)

>  <Pubmed ID>  (1) 
15993593

>  <DOI>  (1) 
10.1016/j.bmcl.2005.06.007

$$$$
