4wnv_ligand_713
     RDKit          2D

 23 25  0  0  0  0  0  0  0  0999 V2000
    0.0000   -0.0000   -0.0000 S   0  0  0  0  0  0  0  0  0  0  0  0
    0.7378   -1.2852   -0.0000 O   0  0  0  0  0  0  0  0  0  0  0  0
   -0.7616    1.3090   -0.0000 O   0  0  0  0  0  0  0  0  0  0  0  0
   -1.3090   -0.7378   -0.0000 N   0  0  0  0  0  0  0  0  0  0  0  0
    1.2733    0.7735   -0.0000 C   0  0  0  0  0  0  0  0  0  0  0  0
   -1.3328   -2.2253   -0.0000 C   0  0  0  0  0  0  0  0  0  0  0  0
   -2.6181    0.0238   -0.0000 C   0  0  0  0  0  0  0  0  0  0  0  0
   -0.1547   -3.1060   -0.0000 C   0  0  0  0  0  0  0  0  0  0  0  0
   -2.5705   -3.0822   -0.0000 C   0  0  0  0  0  0  0  0  0  0  0  0
   -3.9271   -0.7259   -0.0000 C   0  0  0  0  0  0  0  0  0  0  0  0
   -0.6426   -4.5102   -0.0000 N   0  0  0  0  0  0  0  0  0  0  0  0
   -2.1301   -4.4983   -0.0000 C   0  0  0  0  0  0  0  0  0  0  0  0
   -5.2480    0.0238   -0.0000 C   0  0  0  0  0  0  0  0  0  0  0  0
   -3.9390   -2.2253   -0.0000 C   0  0  0  0  0  0  0  0  0  0  0  0
   -5.2718    1.5351   -0.0000 C   0  0  0  0  0  0  0  0  0  0  0  0
   -6.5451   -0.7140   -0.0000 C   0  0  0  0  0  0  0  0  0  0  0  0
   -5.2599   -2.9632   -0.0000 C   0  0  0  0  0  0  0  0  0  0  0  0
   -3.9866    2.2967   -0.0000 C   0  0  0  0  0  0  0  0  0  0  0  0
   -6.5808    2.2848   -0.0000 C   0  0  0  0  0  0  0  0  0  0  0  0
   -6.5570   -2.2015   -0.0000 C   0  0  0  0  0  0  0  0  0  0  0  0
   -4.0104    3.8081   -0.0000 C   0  0  0  0  0  0  0  0  0  0  0  0
   -6.6046    3.7962   -0.0000 C   0  0  0  0  0  0  0  0  0  0  0  0
   -5.3313    4.5697   -0.0000 C   0  0  0  0  0  0  0  0  0  0  0  0
  1  2  2  0
  1  3  2  0
  1  4  1  0
  1  5  1  0
  6  4  1  6
  4  7  1  0
  6  8  1  0
  6  9  1  0
  7 10  1  0
  8 11  1  0
  9 12  1  0
 10 13  1  0
 10 14  2  0
 13 15  1  0
 13 16  2  0
 14 17  1  0
 15 18  2  0
 15 19  1  0
 16 20  1  0
 18 21  1  0
 19 22  2  0
 21 23  2  0
 11 12  1  0
 17 20  2  0
 22 23  1  0
M  END
>  <MolRegNo>  (1) 
489541

>  <m>  (1) 
=

>  <Value>  (1) 
5360

>  <Unit>  (1) 
nM

>  <Type>  (1) 
IC50

>  <pValue>  (1) 
5.27

>  <Ligand Efficiency>  (1) 
0

>  <Binding Efficiency>  (1) 
0

>  <Surface Efficiency>  (1) 
0

>  <Assay Index>  (1) 
339261

>  <Assay Category>  (1) 


>  <Assay Organism>  (1) 


>  <Target ID>  (1) 
11365

>  <Target Name>  (1) 
Cytochrome P450 2D6

>  <Target Organism>  (1) 
Homo sapiens

>  <Target Description>  (1) 
Target is a single protein chain

>  <Sequence Accession>  (1) 
P10635

>  <Reference>  (1) 
Bioorg Med Chem Lett 18 (15), 4355-4359 (2008)

>  <Pubmed ID>  (1) 
18621528

>  <DOI>  (1) 
10.1016/j.bmcl.2008.06.071

$$$$
