4wnv_ligand_972
     RDKit          2D

 29 32  0  0  0  0  0  0  0  0999 V2000
    0.0000   -0.0000   -0.0000 S   0  0  0  0  0  0  0  0  0  0  0  0
   -0.7780    1.3085   -0.0000 O   0  0  0  0  0  0  0  0  0  0  0  0
    0.7191    1.3085   -0.0000 O   0  0  0  0  0  0  0  0  0  0  0  0
   -1.3085   -0.7427   -0.0000 C   0  0  0  0  0  0  0  0  0  0  0  0
    1.2849   -0.7427   -0.0000 C   0  0  0  0  0  0  0  0  0  0  0  0
   -1.3085   -2.2280   -0.0000 C   0  0  0  0  0  0  0  0  0  0  0  0
   -2.6170    0.0236   -0.0000 C   0  0  0  0  0  0  0  0  0  0  0  0
    2.5699    0.0236   -0.0000 C   0  0  0  0  0  0  0  0  0  0  0  0
   -2.6052   -2.9707   -0.0000 N   0  0  0  0  0  0  0  0  0  0  0  0
   -3.9255   -0.7073   -0.0000 C   0  0  0  0  0  0  0  0  0  0  0  0
    3.8548   -0.7191   -0.0000 C   0  0  0  0  0  0  0  0  0  0  0  0
    2.5581    1.5325   -0.0000 C   0  0  0  0  0  0  0  0  0  0  0  0
   -3.9255   -2.2044   -0.0000 C   0  0  0  0  0  0  0  0  0  0  0  0
    5.1279    0.0472   -0.0000 C   0  0  0  0  0  0  0  0  0  0  0  0
    3.8430    2.2987   -0.0000 C   0  0  0  0  0  0  0  0  0  0  0  0
   -5.2340   -2.9471   -0.0000 O   0  0  0  0  0  0  0  0  0  0  0  0
    5.1161    1.5561   -0.0000 C   0  0  0  0  0  0  0  0  0  0  0  0
    6.2832   -0.8841   -0.0000 C   0  0  0  0  0  0  0  0  0  0  0  0
   -6.5425   -2.1926   -0.0000 C   0  0  0  0  0  0  0  0  0  0  0  0
    6.2714    2.4991   -0.0000 C   0  0  0  0  0  0  0  0  0  0  0  0
    7.7331   -0.5423   -0.0000 C   0  0  0  0  0  0  0  0  0  0  0  0
   -6.5425   -0.6837   -0.0000 C   0  0  0  0  0  0  0  0  0  0  0  0
   -7.8392   -2.9353   -0.0000 C   0  0  0  0  0  0  0  0  0  0  0  0
    7.7214    2.1808   -0.0000 C   0  0  0  0  0  0  0  0  0  0  0  0
    8.3697    0.8134   -0.0000 N   0  0  0  0  0  0  0  0  0  0  0  0
   -7.8510    0.0707   -0.0000 C   0  0  0  0  0  0  0  0  0  0  0  0
   -9.1477   -2.1808   -0.0000 C   0  0  0  0  0  0  0  0  0  0  0  0
   -9.1595   -0.6719   -0.0000 C   0  0  0  0  0  0  0  0  0  0  0  0
  -10.4680    0.0825   -0.0000 F   0  0  0  0  0  0  0  0  0  0  0  0
  1  2  2  0
  1  3  2  0
  1  4  1  0
  1  5  1  0
  4  6  2  0
  4  7  1  0
  5  8  1  0
  6  9  1  0
  7 10  2  0
  8 11  2  0
  8 12  1  0
  9 13  2  0
 11 14  1  0
 12 15  2  0
 13 16  1  0
 14 17  2  0
 14 18  1  0
 16 19  1  0
 17 20  1  0
 18 21  1  0
 19 22  2  0
 19 23  1  0
 20 24  1  0
 21 25  1  0
 22 26  1  0
 23 27  2  0
 26 28  2  0
 28 29  1  0
 10 13  1  0
 15 17  1  0
 24 25  1  0
 27 28  1  0
M  END
>  <MolRegNo>  (1) 
617688

>  <m>  (1) 
=

>  <Value>  (1) 
1700

>  <Unit>  (1) 
nM

>  <Type>  (1) 
IC50

>  <pValue>  (1) 
5.77

>  <Ligand Efficiency>  (1) 
0

>  <Binding Efficiency>  (1) 
0

>  <Surface Efficiency>  (1) 
0

>  <Assay Index>  (1) 
468007

>  <Assay Category>  (1) 


>  <Assay Organism>  (1) 
Homo sapiens

>  <Target ID>  (1) 
11365

>  <Target Name>  (1) 
Cytochrome P450 2D6

>  <Target Organism>  (1) 
Homo sapiens

>  <Target Description>  (1) 
Target is a single protein chain

>  <Sequence Accession>  (1) 
P10635

>  <Reference>  (1) 
Bioorg Med Chem Lett 19 (22), 6452-6458 (2009)

>  <Pubmed ID>  (1) 
19804969

>  <DOI>  (1) 
10.1016/j.bmcl.2009.09.027

$$$$
