4wnv_ligand_1002
     RDKit          2D

 22 24  0  0  0  0  0  0  0  0999 V2000
    0.0000   -0.0000   -0.0000 S   0  0  0  0  0  0  0  0  0  0  0  0
   -0.1757    1.4994   -0.0000 C   0  0  0  0  0  0  0  0  0  0  0  0
    1.4525   -0.2929   -0.0000 C   0  0  0  0  0  0  0  0  0  0  0  0
    1.1714    2.1202   -0.0000 N   0  0  0  0  0  0  0  0  0  0  0  0
   -1.4877    2.2491   -0.0000 C   0  0  0  0  0  0  0  0  0  0  0  0
    2.1788    1.0191   -0.0000 C   0  0  0  0  0  0  0  0  0  0  0  0
   -1.4994    3.7485   -0.0000 C   0  0  0  0  0  0  0  0  0  0  0  0
   -2.7879    1.4994   -0.0000 C   0  0  0  0  0  0  0  0  0  0  0  0
   -2.7294    4.6388   -0.0000 C   0  0  0  0  0  0  0  0  0  0  0  0
   -0.3046    4.6505   -0.0000 C   0  0  0  0  0  0  0  0  0  0  0  0
   -2.2842    6.0796   -0.0000 C   0  0  0  0  0  0  0  0  0  0  0  0
   -4.2054    4.3342   -0.0000 C   0  0  0  0  0  0  0  0  0  0  0  0
   -0.7848    6.0913   -0.0000 C   0  0  0  0  0  0  0  0  0  0  0  0
    1.1128    4.2054   -0.0000 C   0  0  0  0  0  0  0  0  0  0  0  0
   -3.3034    7.1924   -0.0000 C   0  0  0  0  0  0  0  0  0  0  0  0
   -5.2245    5.4470   -0.0000 C   0  0  0  0  0  0  0  0  0  0  0  0
    2.2022    5.2245   -0.0000 C   0  0  0  0  0  0  0  0  0  0  0  0
   -4.7676    6.8879   -0.0000 C   0  0  0  0  0  0  0  0  0  0  0  0
    3.6196    4.7793   -0.0000 N   0  0  0  0  0  0  0  0  0  0  0  0
   -5.7868    8.0007   -0.0000 C   0  0  0  0  0  0  0  0  0  0  0  0
    4.7091    5.7985   -0.0000 C   0  0  0  0  0  0  0  0  0  0  0  0
    3.9242    3.3268   -0.0000 C   0  0  0  0  0  0  0  0  0  0  0  0
  1  2  1  0
  1  3  1  0
  2  4  2  0
  2  5  1  0
  3  6  2  0
  5  7  1  0
  5  8  1  1
  7  9  1  0
  7 10  2  0
  9 11  2  0
  9 12  1  0
 10 13  1  0
 10 14  1  0
 11 15  1  0
 12 16  2  0
 14 17  1  0
 15 18  2  0
 17 19  1  0
 18 20  1  0
 19 21  1  0
 19 22  1  0
  4  6  1  0
 11 13  1  0
 16 18  1  0
M  END
>  <MolRegNo>  (1) 
621171

>  <m>  (1) 
=

>  <Value>  (1) 
1400

>  <Unit>  (1) 
nM

>  <Type>  (1) 
IC50

>  <pValue>  (1) 
5.85

>  <Ligand Efficiency>  (1) 
0

>  <Binding Efficiency>  (1) 
0

>  <Surface Efficiency>  (1) 
0

>  <Assay Index>  (1) 
470598

>  <Assay Category>  (1) 


>  <Assay Organism>  (1) 


>  <Target ID>  (1) 
11365

>  <Target Name>  (1) 
Cytochrome P450 2D6

>  <Target Organism>  (1) 
Homo sapiens

>  <Target Description>  (1) 
Target is a single protein chain

>  <Sequence Accession>  (1) 
P10635

>  <Reference>  (1) 
Bioorg Med Chem Lett 20 (8), 2629-2633 (2010)

>  <Pubmed ID>  (1) 
20227880

>  <DOI>  (1) 
10.1016/j.bmcl.2010.02.055

$$$$
