4wnv_ligand_169
     RDKit          2D

 16 16  0  0  0  0  0  0  0  0999 V2000
    0.0000   -0.0000   -0.0000 Cl  0  0  0  0  0  0  0  0  0  0  0  0
    1.4940   -0.0000   -0.0000 C   0  0  0  0  0  0  0  0  0  0  0  0
    2.2173   -1.3043   -0.0000 N   0  0  0  0  0  0  0  0  0  0  0  0
    2.2411    1.2925   -0.0000 C   0  0  0  0  0  0  0  0  0  0  0  0
    3.7114   -1.3043   -0.0000 S   0  0  0  0  0  0  0  0  0  0  0  0
    1.4940    2.6324   -0.0000 N   0  0  0  0  0  0  0  0  0  0  0  0
    3.7232    0.2134   -0.0000 O   0  0  0  0  0  0  0  0  0  0  0  0
    3.6995   -2.7984   -0.0000 O   0  0  0  0  0  0  0  0  0  0  0  0
    5.2054   -1.2925   -0.0000 C   0  0  0  0  0  0  0  0  0  0  0  0
    2.2411    3.9367   -0.0000 C   0  0  0  0  0  0  0  0  0  0  0  0
    5.9524    0.0237   -0.0000 C   0  0  0  0  0  0  0  0  0  0  0  0
    5.9524   -2.5731   -0.0000 C   0  0  0  0  0  0  0  0  0  0  0  0
    7.4465    0.0474   -0.0000 C   0  0  0  0  0  0  0  0  0  0  0  0
    7.4465   -2.5612   -0.0000 C   0  0  0  0  0  0  0  0  0  0  0  0
    8.1935   -1.2450   -0.0000 C   0  0  0  0  0  0  0  0  0  0  0  0
    9.6875   -1.2332   -0.0000 C   0  0  0  0  0  0  0  0  0  0  0  0
  1  2  1  0
  2  3  2  0
  2  4  1  0
  3  5  1  0
  4  6  1  0
  5  7  2  0
  5  8  2  0
  5  9  1  0
  6 10  1  0
  9 11  2  0
  9 12  1  0
 11 13  1  0
 12 14  2  0
 13 15  2  0
 15 16  1  0
 14 15  1  0
M  END
>  <MolRegNo>  (1) 
314363

>  <m>  (1) 
=

>  <Value>  (1) 
265000

>  <Unit>  (1) 
nM

>  <Type>  (1) 
IC50

>  <pValue>  (1) 
0

>  <Ligand Efficiency>  (1) 
0

>  <Binding Efficiency>  (1) 
0

>  <Surface Efficiency>  (1) 
0

>  <Assay Index>  (1) 
237541

>  <Assay Category>  (1) 


>  <Assay Organism>  (1) 


>  <Target ID>  (1) 
11365

>  <Target Name>  (1) 
Cytochrome P450 2D6

>  <Target Organism>  (1) 
Homo sapiens

>  <Target Description>  (1) 
Target is a single protein chain

>  <Sequence Accession>  (1) 
P10635

>  <Reference>  (1) 
J Med Chem 47 (22), 5340-5346 (2004)

>  <Pubmed ID>  (1) 
15481972

>  <DOI>  (1) 
10.1021/jm049934e

$$$$
