4wnv_ligand_109
     RDKit          2D

 19 19  0  0  0  0  0  0  0  0999 V2000
    0.0000   -0.0000   -0.0000 O   0  0  0  0  0  0  0  0  0  0  0  0
    1.2920   -0.7349   -0.0000 C   0  0  0  0  0  0  0  0  0  0  0  0
   -1.3157   -0.7349   -0.0000 C   0  0  0  0  0  0  0  0  0  0  0  0
    1.2801   -2.2284   -0.0000 C   0  0  0  0  0  0  0  0  0  0  0  0
    2.5840    0.0237   -0.0000 C   0  0  0  0  0  0  0  0  0  0  0  0
   -2.6314    0.0237   -0.0000 C   0  0  0  0  0  0  0  0  0  0  0  0
    2.5721   -2.9633   -0.0000 C   0  0  0  0  0  0  0  0  0  0  0  0
    3.8760   -0.7112   -0.0000 C   0  0  0  0  0  0  0  0  0  0  0  0
   -2.6433    1.5409   -0.0000 O   0  0  0  0  0  0  0  0  0  0  0  0
   -3.9471   -0.7112   -0.0000 C   0  0  0  0  0  0  0  0  0  0  0  0
    3.8641   -2.2047   -0.0000 C   0  0  0  0  0  0  0  0  0  0  0  0
   -5.2628    0.0474   -0.0000 N   0  0  0  0  0  0  0  0  0  0  0  0
    5.1561   -2.9396   -0.0000 C   0  0  0  0  0  0  0  0  0  0  0  0
   -6.5785   -0.6875   -0.0000 C   0  0  0  0  0  0  0  0  0  0  0  0
    6.4481   -2.1810   -0.0000 C   0  0  0  0  0  0  0  0  0  0  0  0
   -7.8942    0.0711   -0.0000 C   0  0  0  0  0  0  0  0  0  0  0  0
   -6.5903   -2.1810   -0.0000 C   0  0  0  0  0  0  0  0  0  0  0  0
    7.7401   -2.9159   -0.0000 O   0  0  0  0  0  0  0  0  0  0  0  0
    9.0321   -2.1573   -0.0000 C   0  0  0  0  0  0  0  0  0  0  0  0
  1  2  1  0
  1  3  1  0
  2  4  2  0
  2  5  1  0
  3  6  1  0
  4  7  1  0
  5  8  2  0
  6  9  1  0
  6 10  1  0
  7 11  2  0
 10 12  1  0
 11 13  1  0
 12 14  1  0
 13 15  1  0
 14 16  1  0
 14 17  1  0
 15 18  1  0
 18 19  1  0
  8 11  1  0
M  END
>  <MolRegNo>  (1) 
789

>  <m>  (1) 
=

>  <Value>  (1) 
24000

>  <Unit>  (1) 
nM

>  <Type>  (1) 
IC50

>  <pValue>  (1) 
4.62

>  <Ligand Efficiency>  (1) 
0

>  <Binding Efficiency>  (1) 
0

>  <Surface Efficiency>  (1) 
0

>  <Assay Index>  (1) 
238811

>  <Assay Category>  (1) 


>  <Assay Organism>  (1) 
Homo sapiens

>  <Target ID>  (1) 
11365

>  <Target Name>  (1) 
Cytochrome P450 2D6

>  <Target Organism>  (1) 
Homo sapiens

>  <Target Description>  (1) 
Target is a single protein chain

>  <Sequence Accession>  (1) 
P10635

>  <Reference>  (1) 
Bioorg Med Chem Lett 15 (17), 3816-3820 (2005)

>  <Pubmed ID>  (1) 
15993593

>  <DOI>  (1) 
10.1016/j.bmcl.2005.06.007

$$$$
