4wnv_ligand_1024
     RDKit          2D

 23 25  0  0  0  0  0  0  0  0999 V2000
    0.0000   -0.0000   -0.0000 O   0  0  0  0  0  0  0  0  0  0  0  0
   -0.0119   -1.5009   -0.0000 C   0  0  0  0  0  0  0  0  0  0  0  0
    1.2984    0.7624   -0.0000 C   0  0  0  0  0  0  0  0  0  0  0  0
   -1.3342   -2.2395   -0.0000 C   0  0  0  0  0  0  0  0  0  0  0  0
    1.2865   -2.2514   -0.0000 C   0  0  0  0  0  0  0  0  0  0  0  0
    1.2865    1.9894   -0.0000 C   0  0  0  0  0  0  0  0  0  0  0  0
   -1.3461   -3.7405   -0.0000 C   0  0  0  0  0  0  0  0  0  0  0  0
   -2.6564   -1.4771   -0.0000 C   0  0  0  0  0  0  0  0  0  0  0  0
    1.2746   -3.7524   -0.0000 C   0  0  0  0  0  0  0  0  0  0  0  0
   -0.0476   -4.4909   -0.0000 C   0  0  0  0  0  0  0  0  0  0  0  0
   -3.9787   -2.2276   -0.0000 C   0  0  0  0  0  0  0  0  0  0  0  0
   -3.9906   -3.7285   -0.0000 N   0  0  0  0  0  0  0  0  0  0  0  0
   -5.3010   -1.4652   -0.0000 C   0  0  0  0  0  0  0  0  0  0  0  0
   -2.6922   -4.4671   -0.0000 C   0  0  0  0  0  0  0  0  0  0  0  0
   -5.3129   -4.4671   -0.0000 C   0  0  0  0  0  0  0  0  0  0  0  0
   -5.3129    0.0596   -0.0000 C   0  0  0  0  0  0  0  0  0  0  0  0
   -6.6232   -2.2157   -0.0000 C   0  0  0  0  0  0  0  0  0  0  0  0
   -2.7041   -5.9681   -0.0000 C   0  0  0  0  0  0  0  0  0  0  0  0
   -5.3248   -5.9681   -0.0000 C   0  0  0  0  0  0  0  0  0  0  0  0
   -6.6351    0.8219   -0.0000 C   0  0  0  0  0  0  0  0  0  0  0  0
   -7.9455   -1.4533   -0.0000 C   0  0  0  0  0  0  0  0  0  0  0  0
   -4.0264   -6.7066   -0.0000 N   0  0  0  0  0  0  0  0  0  0  0  0
   -7.9574    0.0715   -0.0000 C   0  0  0  0  0  0  0  0  0  0  0  0
  1  2  1  0
  1  3  1  0
  2  4  2  0
  2  5  1  0
  3  6  1  0
  4  7  1  0
  4  8  1  0
  5  9  2  0
  7 10  2  0
 11  8  1  6
 11 12  1  0
 11 13  1  0
 12 14  1  0
 12 15  1  0
 13 16  2  0
 13 17  1  0
 14 18  1  0
 15 19  1  0
 16 20  1  0
 17 21  2  0
 18 22  1  0
 20 23  2  0
  9 10  1  0
 19 22  1  0
 21 23  1  0
M  END
>  <MolRegNo>  (1) 
427175

>  <m>  (1) 
=

>  <Value>  (1) 
30000

>  <Unit>  (1) 
nM

>  <Type>  (1) 
IC50

>  <pValue>  (1) 
4.52

>  <Ligand Efficiency>  (1) 
0

>  <Binding Efficiency>  (1) 
0

>  <Surface Efficiency>  (1) 
0

>  <Assay Index>  (1) 
480301

>  <Assay Category>  (1) 


>  <Assay Organism>  (1) 


>  <Target ID>  (1) 
11365

>  <Target Name>  (1) 
Cytochrome P450 2D6

>  <Target Organism>  (1) 
Homo sapiens

>  <Target Description>  (1) 
Target is a single protein chain

>  <Sequence Accession>  (1) 
P10635

>  <Reference>  (1) 
Bioorg Med Chem Lett 20 (12), 3788-3792 (2010)

>  <Pubmed ID>  (1) 
20471260

>  <DOI>  (1) 
10.1016/j.bmcl.2010.04.052

$$$$
