4wnv_ligand_989
     RDKit          2D

 23 25  0  0  0  0  0  0  0  0999 V2000
    0.0000   -0.0000   -0.0000 O   0  0  0  0  0  0  0  0  0  0  0  0
    0.9938   -1.1015   -0.0000 C   0  0  0  0  0  0  0  0  0  0  0  0
   -1.4847   -0.3113   -0.0000 C   0  0  0  0  0  0  0  0  0  0  0  0
    2.4545   -0.7663   -0.0000 C   0  0  0  0  0  0  0  0  0  0  0  0
    0.5148   -2.5263   -0.0000 C   0  0  0  0  0  0  0  0  0  0  0  0
    3.4602   -1.8678   -0.0000 C   0  0  0  0  0  0  0  0  0  0  0  0
    1.5206   -3.6279   -0.0000 C   0  0  0  0  0  0  0  0  0  0  0  0
    2.9813   -3.3046   -0.0000 C   0  0  0  0  0  0  0  0  0  0  0  0
    4.9689   -1.8439   -0.0000 C   0  0  0  0  0  0  0  0  0  0  0  0
    4.2026   -4.1786   -0.0000 C   0  0  0  0  0  0  0  0  0  0  0  0
    5.4358   -3.2806   -0.0000 C   0  0  0  0  0  0  0  0  0  0  0  0
    4.2026   -5.6753   -0.0000 C   0  0  0  0  0  0  0  0  0  0  0  0
    6.8606   -3.7237   -0.0000 C   0  0  0  0  0  0  0  0  0  0  0  0
    5.5196   -6.3577   -0.0000 C   0  0  0  0  0  0  0  0  0  0  0  0
    7.9622   -2.6940   -0.0000 C   0  0  0  0  0  0  0  0  0  0  0  0
    6.7768   -5.5436   -0.0000 N   0  0  0  0  0  0  0  0  0  0  0  0
    5.5555   -7.8544   -0.0000 C   0  0  0  0  0  0  0  0  0  0  0  0
    9.3870   -3.1370   -0.0000 N   0  0  0  0  0  0  0  0  0  0  0  0
    8.0939   -6.2380   -0.0000 C   0  0  0  0  0  0  0  0  0  0  0  0
    6.8726   -8.5488   -0.0000 N   0  0  0  0  0  0  0  0  0  0  0  0
   10.4885   -2.1073   -0.0000 C   0  0  0  0  0  0  0  0  0  0  0  0
    9.6983   -4.5977   -0.0000 C   0  0  0  0  0  0  0  0  0  0  0  0
    8.1418   -7.7466   -0.0000 C   0  0  0  0  0  0  0  0  0  0  0  0
  1  2  1  0
  1  3  1  0
  2  4  2  0
  2  5  1  0
  4  6  1  0
  5  7  2  0
  6  8  2  0
  6  9  1  0
  8 10  1  0
  9 11  1  0
 10 12  1  0
 11 13  1  0
 12 14  1  0
 13 15  1  0
 14 16  2  0
 14 17  1  0
 15 18  1  0
 16 19  1  0
 17 20  2  0
 18 21  1  0
 18 22  1  0
 19 23  2  0
  7  8  1  0
 10 11  2  0
 20 23  1  0
M  END
>  <MolRegNo>  (1) 
621023

>  <m>  (1) 
=

>  <Value>  (1) 
5300

>  <Unit>  (1) 
nM

>  <Type>  (1) 
IC50

>  <pValue>  (1) 
5.28

>  <Ligand Efficiency>  (1) 
0

>  <Binding Efficiency>  (1) 
0

>  <Surface Efficiency>  (1) 
0

>  <Assay Index>  (1) 
470598

>  <Assay Category>  (1) 


>  <Assay Organism>  (1) 


>  <Target ID>  (1) 
11365

>  <Target Name>  (1) 
Cytochrome P450 2D6

>  <Target Organism>  (1) 
Homo sapiens

>  <Target Description>  (1) 
Target is a single protein chain

>  <Sequence Accession>  (1) 
P10635

>  <Reference>  (1) 
Bioorg Med Chem Lett 20 (8), 2629-2633 (2010)

>  <Pubmed ID>  (1) 
20227880

>  <DOI>  (1) 
10.1016/j.bmcl.2010.02.055

$$$$
