4wnv_ligand_425
     RDKit          2D

 37 40  0  0  1  0  0  0  0  0999 V2000
    0.0000   -0.0000   -0.0000 S   0  0  0  0  0  0  0  0  0  0  0  0
    1.2045    0.8945   -0.0000 C   0  0  0  0  0  0  0  0  0  0  0  0
    0.4532   -1.4192   -0.0000 C   0  0  0  0  0  0  0  0  0  0  0  0
    2.4091    0.0358   -0.0000 N   0  0  0  0  0  0  0  0  0  0  0  0
    1.1926    2.4091   -0.0000 N   0  0  0  0  0  0  0  0  0  0  0  0
    1.9440   -1.4073   -0.0000 C   0  0  0  0  0  0  0  0  0  0  0  0
   -0.3339   -2.6834   -0.0000 C   0  0  0  0  0  0  0  0  0  0  0  0
   -0.1193    3.1843   -0.0000 C   0  0  0  0  0  0  0  0  0  0  0  0
    2.8146   -2.5999   -0.0000 C   0  0  0  0  0  0  0  0  0  0  0  0
   -1.8366   -2.6476   -0.0000 O   0  0  0  0  0  0  0  0  0  0  0  0
    0.3816   -3.9833   -0.0000 C   0  0  0  0  0  0  0  0  0  0  0  0
   -1.4311    2.4449   -0.0000 O   0  0  0  0  0  0  0  0  0  0  0  0
   -0.1312    4.6989   -0.0000 N   0  0  0  0  0  0  0  0  0  0  0  0
   -1.4431    5.4622   -0.0000 C   0  0  0  0  0  0  0  0  0  0  0  0
   -1.4550    6.9768   -0.0000 C   0  0  0  0  0  0  0  0  0  0  0  0
   -2.7549    4.7347   -0.0000 C   0  0  0  0  0  0  0  0  0  0  0  0
   -2.7669    7.7520   -0.0000 C   0  0  0  0  0  0  0  0  0  0  0  0
   -0.1550    7.7401   -0.0000 C   0  0  0  0  0  0  0  0  0  0  0  0
   -4.0668    5.4860   -0.0000 N   0  0  0  0  0  0  0  0  0  0  0  0
   -4.0787    7.0006   -0.0000 C   0  0  0  0  0  0  0  0  0  0  0  0
    1.1330    6.9887   -0.0000 N   0  0  0  0  0  0  0  0  0  0  0  0
   -5.3787    4.7466   -0.0000 C   0  0  0  0  0  0  0  0  0  0  0  0
    2.4210    7.7520   -0.0000 C   0  0  0  0  0  0  0  0  0  0  0  0
    1.1211    5.4860   -0.0000 C   0  0  0  0  0  0  0  0  0  0  0  0
   -6.6906    5.4979   -0.0000 C   0  0  0  0  0  0  0  0  0  0  0  0
    3.7090    7.0006   -0.0000 C   0  0  0  0  0  0  0  0  0  0  0  0
    2.4091    4.7466   -0.0000 C   0  0  0  0  0  0  0  0  0  0  0  0
   -8.0024    4.7585   -0.0000 F   0  0  0  0  0  0  0  0  0  0  0  0
    3.6852    5.5099   -0.0000 C   0  0  0  0  0  0  0  0  0  0  0  0
    5.0090    7.7639   -0.0000 C   0  0  0  0  0  0  0  0  0  0  0  0
    6.2970    7.0126   -0.0000 C   0  0  0  0  0  0  0  0  0  0  0  0
    6.2612    5.5218   -0.0000 C   0  0  0  0  0  0  0  0  0  0  0  0
    7.5850    7.7758   -0.0000 C   0  0  0  0  0  0  0  0  0  0  0  0
    7.5492    4.7824   -0.0000 C   0  0  0  0  0  0  0  0  0  0  0  0
    8.8730    7.0245   -0.0000 C   0  0  0  0  0  0  0  0  0  0  0  0
    8.8492    5.5337   -0.0000 C   0  0  0  0  0  0  0  0  0  0  0  0
   10.1372    4.7943   -0.0000 F   0  0  0  0  0  0  0  0  0  0  0  0
  1  2  1  0
  1  3  1  0
  2  4  2  0
  2  5  1  0
  3  6  2  0
  3  7  1  0
  5  8  1  0
  6  9  1  0
  7 10  2  0
  7 11  1  0
  8 12  2  0
  8 13  1  0
 14 13  1  6
 14 15  1  0
 14 16  1  0
 15 17  1  0
 15 18  1  1
 16 19  1  0
 17 20  1  0
 18 21  1  0
 19 22  1  0
 21 23  1  0
 21 24  1  0
 22 25  1  0
 23 26  1  0
 24 27  1  0
 25 28  1  0
 26 29  1  0
 26 30  1  6
 30 31  1  0
 31 32  2  0
 31 33  1  0
 32 34  1  0
 33 35  2  0
 34 36  2  0
 36 37  1  0
  4  6  1  0
 19 20  1  0
 27 29  1  0
 35 36  1  0
M  END
>  <MolRegNo>  (1) 
421522

>  <m>  (1) 
=

>  <Value>  (1) 
3300

>  <Unit>  (1) 
nM

>  <Type>  (1) 
IC50

>  <pValue>  (1) 
5.48

>  <Ligand Efficiency>  (1) 
0

>  <Binding Efficiency>  (1) 
0

>  <Surface Efficiency>  (1) 
0

>  <Assay Index>  (1) 
307824

>  <Assay Category>  (1) 


>  <Assay Organism>  (1) 
Homo sapiens

>  <Target ID>  (1) 
11365

>  <Target Name>  (1) 
Cytochrome P450 2D6

>  <Target Organism>  (1) 
Homo sapiens

>  <Target Description>  (1) 
Target is a single protein chain

>  <Sequence Accession>  (1) 
P10635

>  <Reference>  (1) 
Bioorg Med Chem Lett 17 (11), 2992-2997 (2007)

>  <Pubmed ID>  (1) 
17418570

>  <DOI>  (1) 
10.1016/j.bmcl.2007.03.065

$$$$
