4wnv_ligand_171
     RDKit          2D

 17 17  0  0  0  0  0  0  0  0999 V2000
    0.0000   -0.0000   -0.0000 S   0  0  0  0  0  0  0  0  0  0  0  0
   -0.0120    1.4969   -0.0000 O   0  0  0  0  0  0  0  0  0  0  0  0
   -0.0120   -1.4969   -0.0000 O   0  0  0  0  0  0  0  0  0  0  0  0
    1.4969    0.0120   -0.0000 N   0  0  0  0  0  0  0  0  0  0  0  0
   -1.5089    0.0120   -0.0000 C   0  0  0  0  0  0  0  0  0  0  0  0
    2.2274   -1.2813   -0.0000 N   0  0  0  0  0  0  0  0  0  0  0  0
   -2.2633   -1.2813   -0.0000 C   0  0  0  0  0  0  0  0  0  0  0  0
   -2.2633    1.2933   -0.0000 C   0  0  0  0  0  0  0  0  0  0  0  0
    3.7242   -1.2694   -0.0000 C   0  0  0  0  0  0  0  0  0  0  0  0
   -3.7961   -1.2813   -0.0000 C   0  0  0  0  0  0  0  0  0  0  0  0
   -3.7961    1.3053   -0.0000 C   0  0  0  0  0  0  0  0  0  0  0  0
    4.4547   -2.5507   -0.0000 C   0  0  0  0  0  0  0  0  0  0  0  0
   -4.5385    0.0240   -0.0000 C   0  0  0  0  0  0  0  0  0  0  0  0
    3.7003   -3.8320   -0.0000 O   0  0  0  0  0  0  0  0  0  0  0  0
    5.9396   -2.5387   -0.0000 O   0  0  0  0  0  0  0  0  0  0  0  0
   -6.0594    0.0359   -0.0000 O   0  0  0  0  0  0  0  0  0  0  0  0
   -6.8138    1.3532   -0.0000 C   0  0  0  0  0  0  0  0  0  0  0  0
  1  2  2  0
  1  3  2  0
  1  4  1  0
  1  5  1  0
  4  6  1  0
  5  7  2  0
  5  8  1  0
  6  9  2  0
  7 10  1  0
  8 11  2  0
  9 12  1  0
 10 13  2  0
 12 14  2  0
 12 15  1  0
 13 16  1  0
 16 17  1  0
 11 13  1  0
M  END
>  <MolRegNo>  (1) 
314365

>  <m>  (1) 
=

>  <Value>  (1) 
288000

>  <Unit>  (1) 
nM

>  <Type>  (1) 
IC50

>  <pValue>  (1) 
0

>  <Ligand Efficiency>  (1) 
0

>  <Binding Efficiency>  (1) 
0

>  <Surface Efficiency>  (1) 
0

>  <Assay Index>  (1) 
237541

>  <Assay Category>  (1) 


>  <Assay Organism>  (1) 


>  <Target ID>  (1) 
11365

>  <Target Name>  (1) 
Cytochrome P450 2D6

>  <Target Organism>  (1) 
Homo sapiens

>  <Target Description>  (1) 
Target is a single protein chain

>  <Sequence Accession>  (1) 
P10635

>  <Reference>  (1) 
J Med Chem 47 (22), 5340-5346 (2004)

>  <Pubmed ID>  (1) 
15481972

>  <DOI>  (1) 
10.1021/jm049934e

$$$$
