4wnv_ligand_576
     RDKit          2D

 18 19  0  0  0  0  0  0  0  0999 V2000
    0.0000   -0.0000   -0.0000 O   0  0  0  0  0  0  0  0  0  0  0  0
    0.0000   -1.4913   -0.0000 C   0  0  0  0  0  0  0  0  0  0  0  0
   -1.3123   -2.2428   -0.0000 C   0  0  0  0  0  0  0  0  0  0  0  0
    1.3004   -2.2190   -0.0000 C   0  0  0  0  0  0  0  0  0  0  0  0
   -2.6365   -1.4913   -0.0000 C   0  0  0  0  0  0  0  0  0  0  0  0
    2.5888   -1.4435   -0.0000 C   0  0  0  0  0  0  0  0  0  0  0  0
   -3.9488   -2.2428   -0.0000 C   0  0  0  0  0  0  0  0  0  0  0  0
    3.8892   -2.1713   -0.0000 C   0  0  0  0  0  0  0  0  0  0  0  0
   -5.2731   -1.4913   -0.0000 C   0  0  0  0  0  0  0  0  0  0  0  0
   -3.9608   -3.7460   -0.0000 C   0  0  0  0  0  0  0  0  0  0  0  0
    3.8773   -3.6625   -0.0000 C   0  0  0  0  0  0  0  0  0  0  0  0
    5.1657   -1.3958   -0.0000 C   0  0  0  0  0  0  0  0  0  0  0  0
   -6.5734   -2.2309   -0.0000 C   0  0  0  0  0  0  0  0  0  0  0  0
   -5.2850   -4.4857   -0.0000 C   0  0  0  0  0  0  0  0  0  0  0  0
    5.1657   -4.3902   -0.0000 C   0  0  0  0  0  0  0  0  0  0  0  0
    6.4541   -2.1235   -0.0000 C   0  0  0  0  0  0  0  0  0  0  0  0
   -6.5854   -3.7222   -0.0000 C   0  0  0  0  0  0  0  0  0  0  0  0
    6.4541   -3.6148   -0.0000 C   0  0  0  0  0  0  0  0  0  0  0  0
  1  2  2  0
  2  3  1  0
  2  4  1  0
  3  5  2  0
  4  6  2  0
  5  7  1  0
  6  8  1  0
  7  9  2  0
  7 10  1  0
  8 11  2  0
  8 12  1  0
  9 13  1  0
 10 14  2  0
 11 15  1  0
 12 16  2  0
 13 17  2  0
 15 18  2  0
 14 17  1  0
 16 18  1  0
M  END
>  <MolRegNo>  (1) 
18520

>  <m>  (1) 
=

>  <Value>  (1) 
68500

>  <Unit>  (1) 
nM

>  <Type>  (1) 
IC50

>  <pValue>  (1) 
4.16

>  <Ligand Efficiency>  (1) 
0

>  <Binding Efficiency>  (1) 
0

>  <Surface Efficiency>  (1) 
0

>  <Assay Index>  (1) 
346197

>  <Assay Category>  (1) 


>  <Assay Organism>  (1) 
Homo sapiens

>  <Target ID>  (1) 
11365

>  <Target Name>  (1) 
Cytochrome P450 2D6

>  <Target Organism>  (1) 
Homo sapiens

>  <Target Description>  (1) 
Target is a single protein chain

>  <Sequence Accession>  (1) 
P10635

>  <Reference>  (1) 
Eur J Med Chem 43 (8), 1621-1631 (2008)

>  <Pubmed ID>  (1) 
18249473

>  <DOI>  (1) 
10.1016/j.ejmech.2007.10.034

$$$$
