4wnv_ligand_210
     RDKit          2D

 35 38  0  0  1  0  0  0  0  0999 V2000
    0.0000   -0.0000   -0.0000 S   0  0  0  0  0  0  0  0  0  0  0  0
    1.4904    0.0119   -0.0000 O   0  0  0  0  0  0  0  0  0  0  0  0
   -1.5142    0.0119   -0.0000 O   0  0  0  0  0  0  0  0  0  0  0  0
   -0.0119    1.5142   -0.0000 N   0  0  0  0  0  0  0  0  0  0  0  0
   -0.0238   -1.4904   -0.0000 C   0  0  0  0  0  0  0  0  0  0  0  0
    1.2758    2.2773   -0.0000 C   0  0  0  0  0  0  0  0  0  0  0  0
    1.2638   -2.2415   -0.0000 C   0  0  0  0  0  0  0  0  0  0  0  0
    2.5515    1.5381   -0.0000 C   0  0  0  0  0  0  0  0  0  0  0  0
    1.2638    3.7915   -0.0000 C   0  0  0  0  0  0  0  0  0  0  0  0
    1.2400   -3.7319   -0.0000 C   0  0  0  0  0  0  0  0  0  0  0  0
    3.8273    2.2892   -0.0000 C   0  0  0  0  0  0  0  0  0  0  0  0
    2.5515    4.5427   -0.0000 C   0  0  0  0  0  0  0  0  0  0  0  0
    3.8273    3.8034   -0.0000 C   0  0  0  0  0  0  0  0  0  0  0  0
    5.1150    1.5500   -0.0000 C   0  0  0  0  0  0  0  0  0  0  0  0
    5.1150    4.5665   -0.0000 O   0  0  0  0  0  0  0  0  0  0  0  0
    6.4146    2.3131   -0.0000 C   0  0  0  0  0  0  0  0  0  0  0  0
    6.4146    3.8273   -0.0000 C   0  0  0  0  0  0  0  0  0  0  0  0
    7.7023    4.5904   -0.0000 C   0  0  0  0  0  0  0  0  0  0  0  0
    7.6903    6.1046   -0.0000 O   0  0  0  0  0  0  0  0  0  0  0  0
    8.9899    3.8511   -0.0000 N   0  0  0  0  0  0  0  0  0  0  0  0
   10.2776    4.6142   -0.0000 C   0  0  0  0  0  0  0  0  0  0  0  0
    8.9780    2.3608   -0.0000 C   0  0  0  0  0  0  0  0  0  0  0  0
   10.2657    6.1284   -0.0000 C   0  0  0  0  0  0  0  0  0  0  0  0
   11.5653    3.8750   -0.0000 C   0  0  0  0  0  0  0  0  0  0  0  0
    8.9542    6.8915   -0.0000 C   0  0  0  0  0  0  0  0  0  0  0  0
   11.5653    6.8915   -0.0000 C   0  0  0  0  0  0  0  0  0  0  0  0
   12.8530    4.6380   -0.0000 N   0  0  0  0  0  0  0  0  0  0  0  0
    8.9422    8.4176   -0.0000 C   0  0  0  0  0  0  0  0  0  0  0  0
   11.5534    8.4176   -0.0000 C   0  0  0  0  0  0  0  0  0  0  0  0
   14.2122    4.0419   -0.0000 C   0  0  0  0  0  0  0  0  0  0  0  0
   12.9961    6.1523   -0.0000 C   0  0  0  0  0  0  0  0  0  0  0  0
   10.2299    9.1807   -0.0000 C   0  0  0  0  0  0  0  0  0  0  0  0
   15.2018    5.1746   -0.0000 C   0  0  0  0  0  0  0  0  0  0  0  0
   14.4507    6.4742   -0.0000 C   0  0  0  0  0  0  0  0  0  0  0  0
   16.6803    5.0315   -0.0000 O   0  0  0  0  0  0  0  0  0  0  0  0
  1  2  2  0
  1  3  2  0
  1  4  1  0
  1  5  1  0
  4  6  1  0
  5  7  1  0
  6  8  2  0
  6  9  1  0
  7 10  1  0
  8 11  1  0
  9 12  2  0
 11 13  2  0
 11 14  1  0
 13 15  1  0
 14 16  1  0
 15 17  1  0
 17 18  1  6
 18 19  2  0
 18 20  1  0
 21 20  1  0
 20 22  1  0
 21 23  1  0
 21 24  1  1
 23 25  2  0
 23 26  1  0
 24 27  1  0
 25 28  1  0
 26 29  2  0
 27 30  1  0
 27 31  1  0
 28 32  2  0
 30 33  1  0
 31 34  1  0
 33 35  1  6
 12 13  1  0
 16 17  1  0
 29 32  1  0
 33 34  1  0
M  END
>  <MolRegNo>  (1) 
332053

>  <m>  (1) 
=

>  <Value>  (1) 
9500

>  <Unit>  (1) 
nM

>  <Type>  (1) 
IC50

>  <pValue>  (1) 
5.02

>  <Ligand Efficiency>  (1) 
0

>  <Binding Efficiency>  (1) 
0

>  <Surface Efficiency>  (1) 
0

>  <Assay Index>  (1) 
253815

>  <Assay Category>  (1) 


>  <Assay Organism>  (1) 
Homo sapiens

>  <Target ID>  (1) 
11365

>  <Target Name>  (1) 
Cytochrome P450 2D6

>  <Target Organism>  (1) 
Homo sapiens

>  <Target Description>  (1) 
Target is a single protein chain

>  <Sequence Accession>  (1) 
P10635

>  <Reference>  (1) 
Bioorg Med Chem Lett 15 (23), 5114-5119 (2005)

>  <Pubmed ID>  (1) 
16203140

>  <DOI>  (1) 
10.1016/j.bmcl.2005.08.094

$$$$
