4wnv_ligand_4
     RDKit          2D

 52 57  0  0  1  0  0  0  0  0999 V2000
    0.0000   -0.0000   -0.0000 F   0  0  0  0  0  0  0  0  0  0  0  0
    1.2916   -0.7347   -0.0000 C   0  0  0  0  0  0  0  0  0  0  0  0
    2.0263    0.5806   -0.0000 F   0  0  0  0  0  0  0  0  0  0  0  0
    0.5332   -2.0263   -0.0000 F   0  0  0  0  0  0  0  0  0  0  0  0
    2.5833   -1.4694   -0.0000 C   0  0  0  0  0  0  0  0  0  0  0  0
    2.5714   -2.9625   -0.0000 N   0  0  0  0  0  0  0  0  0  0  0  0
    3.8631   -3.6972   -0.0000 C   0  0  0  0  0  0  0  0  0  0  0  0
    3.8512   -5.1903   -0.0000 O   0  0  0  0  0  0  0  0  0  0  0  0
    5.1547   -2.9388   -0.0000 C   0  0  0  0  0  0  0  0  0  0  0  0
    6.4464   -3.6735   -0.0000 N   0  0  0  0  0  0  0  0  0  0  0  0
    5.1429   -1.4220   -0.0000 C   0  0  0  0  0  0  0  0  0  0  0  0
    7.7380   -2.9151   -0.0000 C   0  0  0  0  0  0  0  0  0  0  0  0
    6.4345   -5.1666   -0.0000 C   0  0  0  0  0  0  0  0  0  0  0  0
    6.4345   -0.6636   -0.0000 N   0  0  0  0  0  0  0  0  0  0  0  0
    7.7262   -1.3983   -0.0000 C   0  0  0  0  0  0  0  0  0  0  0  0
    7.7262   -5.9013   -0.0000 C   0  0  0  0  0  0  0  0  0  0  0  0
    6.4227    0.8532   -0.0000 C   0  0  0  0  0  0  0  0  0  0  0  0
    9.0178   -5.1429   -0.0000 O   0  0  0  0  0  0  0  0  0  0  0  0
    7.7143   -7.3944   -0.0000 C   0  0  0  0  0  0  0  0  0  0  0  0
    5.1073    1.6234   -0.0000 C   0  0  0  0  0  0  0  0  0  0  0  0
    9.0060   -8.1291   -0.0000 C   0  0  0  0  0  0  0  0  0  0  0  0
    4.9414    3.1284   -0.0000 O   0  0  0  0  0  0  0  0  0  0  0  0
    3.7209    1.0191   -0.0000 C   0  0  0  0  0  0  0  0  0  0  0  0
    8.9941   -9.6222   -0.0000 C   0  0  0  0  0  0  0  0  0  0  0  0
   10.2976   -7.3707   -0.0000 C   0  0  0  0  0  0  0  0  0  0  0  0
    3.4602    3.4483   -0.0000 C   0  0  0  0  0  0  0  0  0  0  0  0
    2.7018    2.1448   -0.0000 C   0  0  0  0  0  0  0  0  0  0  0  0
    7.6788  -10.3569   -0.0000 O   0  0  0  0  0  0  0  0  0  0  0  0
   10.2858  -10.3569   -0.0000 N   0  0  0  0  0  0  0  0  0  0  0  0
   11.5893   -8.1054   -0.0000 C   0  0  0  0  0  0  0  0  0  0  0  0
    2.8321    4.8348   -0.0000 C   0  0  0  0  0  0  0  0  0  0  0  0
   10.2739  -11.8500   -0.0000 C   0  0  0  0  0  0  0  0  0  0  0  0
   12.8809   -7.3470   -0.0000 C   0  0  0  0  0  0  0  0  0  0  0  0
   11.5774   -9.5985   -0.0000 C   0  0  0  0  0  0  0  0  0  0  0  0
    1.3272    5.0007   -0.0000 C   0  0  0  0  0  0  0  0  0  0  0  0
    3.7090    6.0672   -0.0000 C   0  0  0  0  0  0  0  0  0  0  0  0
   11.5656  -12.5846   -0.0000 C   0  0  0  0  0  0  0  0  0  0  0  0
    8.9586  -12.5846   -0.0000 C   0  0  0  0  0  0  0  0  0  0  0  0
   14.1725   -8.0817   -0.0000 C   0  0  0  0  0  0  0  0  0  0  0  0
   12.8690  -10.3332   -0.0000 C   0  0  0  0  0  0  0  0  0  0  0  0
    0.6991    6.3871   -0.0000 N   0  0  0  0  0  0  0  0  0  0  0  0
    3.0810    7.4536   -0.0000 C   0  0  0  0  0  0  0  0  0  0  0  0
   11.5537  -14.0777   -0.0000 C   0  0  0  0  0  0  0  0  0  0  0  0
   12.8572  -11.8263   -0.0000 C   0  0  0  0  0  0  0  0  0  0  0  0
    7.6432  -11.8263   -0.0000 O   0  0  0  0  0  0  0  0  0  0  0  0
    8.9467  -14.0777   -0.0000 C   0  0  0  0  0  0  0  0  0  0  0  0
   14.1607   -9.5748   -0.0000 C   0  0  0  0  0  0  0  0  0  0  0  0
    1.5760    7.6195   -0.0000 C   0  0  0  0  0  0  0  0  0  0  0  0
   10.2384  -14.8124   -0.0000 O   0  0  0  0  0  0  0  0  0  0  0  0
   12.8453  -14.8124   -0.0000 C   0  0  0  0  0  0  0  0  0  0  0  0
   14.1488  -12.5609   -0.0000 C   0  0  0  0  0  0  0  0  0  0  0  0
   14.1370  -14.0540   -0.0000 C   0  0  0  0  0  0  0  0  0  0  0  0
  1  2  1  0
  2  3  1  0
  2  4  1  0
  2  5  1  0
  5  6  1  0
  6  7  1  0
  7  8  2  0
  9  7  1  6
  9 10  1  0
  9 11  1  0
 10 12  1  0
 10 13  1  0
 11 14  1  0
 12 15  1  0
 13 16  1  0
 14 17  1  0
 16 18  1  1
 16 19  1  0
 17 20  1  0
 21 19  1  1
 20 22  1  0
 20 23  2  0
 21 24  1  0
 21 25  1  0
 22 26  1  0
 23 27  1  0
 24 28  2  0
 24 29  1  0
 25 30  1  0
 26 31  1  0
 32 29  1  1
 30 33  2  0
 30 34  1  0
 31 35  2  0
 31 36  1  0
 32 37  1  0
 32 38  1  0
 33 39  1  0
 34 40  2  0
 35 41  1  0
 36 42  2  0
 37 43  2  0
 37 44  1  0
 38 45  1  1
 38 46  1  0
 39 47  2  0
 41 48  2  0
 43 49  1  0
 43 50  1  0
 44 51  2  0
 50 52  2  0
 14 15  1  0
 26 27  2  0
 40 47  1  0
 42 48  1  0
 46 49  1  0
 51 52  1  0
M  END
>  <MolRegNo>  (1) 
2038629

>  <m>  (1) 
=

>  <Value>  (1) 
6400

>  <Unit>  (1) 
nM

>  <Type>  (1) 
IC50

>  <pValue>  (1) 
5.19

>  <Ligand Efficiency>  (1) 
0

>  <Binding Efficiency>  (1) 
0

>  <Surface Efficiency>  (1) 
0

>  <Assay Index>  (1) 
51632

>  <Assay Category>  (1) 


>  <Assay Organism>  (1) 
Homo sapiens

>  <Target ID>  (1) 
11365

>  <Target Name>  (1) 
Cytochrome P450 2D6

>  <Target Organism>  (1) 
Homo sapiens

>  <Target Description>  (1) 
Target is a single protein chain

>  <Sequence Accession>  (1) 
P10635

>  <Reference>  (1) 
Bioorg Med Chem Lett 13 (15), 2569-2572 (2003)

>  <Pubmed ID>  (1) 
12852968

>  <DOI>  (1) 
10.1016/s0960-894x(03)00475-x

$$$$
