4wnv_ligand_1068
     RDKit          2D

 20 22  0  0  0  0  0  0  0  0999 V2000
    0.0000   -0.0000   -0.0000 F   0  0  0  0  0  0  0  0  0  0  0  0
   -0.0118    1.4984   -0.0000 C   0  0  0  0  0  0  0  0  0  0  0  0
    1.2742    2.2653   -0.0000 C   0  0  0  0  0  0  0  0  0  0  0  0
   -1.3214    2.2535   -0.0000 C   0  0  0  0  0  0  0  0  0  0  0  0
    2.6900    1.8287   -0.0000 N   0  0  0  0  0  0  0  0  0  0  0  0
    1.2506    3.7755   -0.0000 C   0  0  0  0  0  0  0  0  0  0  0  0
   -1.3332    3.7637   -0.0000 C   0  0  0  0  0  0  0  0  0  0  0  0
    3.5513    3.0558   -0.0000 C   0  0  0  0  0  0  0  0  0  0  0  0
   -0.0590    4.5306   -0.0000 C   0  0  0  0  0  0  0  0  0  0  0  0
    2.6664    4.2592   -0.0000 C   0  0  0  0  0  0  0  0  0  0  0  0
   -2.6310    4.5188   -0.0000 C   0  0  0  0  0  0  0  0  0  0  0  0
   -2.6428    6.0172   -0.0000 O   0  0  0  0  0  0  0  0  0  0  0  0
   -3.9288    3.7873   -0.0000 C   0  0  0  0  0  0  0  0  0  0  0  0
   -4.0940    2.3125   -0.0000 C   0  0  0  0  0  0  0  0  0  0  0  0
   -5.3093    4.4008   -0.0000 C   0  0  0  0  0  0  0  0  0  0  0  0
   -4.3418    5.2503   -0.0000 C   0  0  0  0  0  0  0  0  0  0  0  0
   -5.5688    2.0175   -0.0000 N   0  0  0  0  0  0  0  0  0  0  0  0
   -6.3239    3.3035   -0.0000 C   0  0  0  0  0  0  0  0  0  0  0  0
   -5.7930    5.6396   -0.0000 C   0  0  0  0  0  0  0  0  0  0  0  0
   -6.1941    7.0908   -0.0000 C   0  0  0  0  0  0  0  0  0  0  0  0
  1  2  1  0
  2  3  2  0
  2  4  1  0
  3  5  1  0
  3  6  1  0
  4  7  2  0
  5  8  1  0
  6  9  2  0
  6 10  1  0
  7 11  1  0
 11 12  2  0
 11 13  1  0
 13 14  1  0
 13 15  1  0
 13 16  1  0
 14 17  1  0
 15 18  1  0
 16 19  1  0
 19 20  1  0
  7  9  1  0
  8 10  2  0
 17 18  1  0
M  END
>  <MolRegNo>  (1) 
690858

>  <m>  (1) 
=

>  <Value>  (1) 
2300

>  <Unit>  (1) 
nM

>  <Type>  (1) 
IC50

>  <pValue>  (1) 
5.64

>  <Ligand Efficiency>  (1) 
0

>  <Binding Efficiency>  (1) 
0

>  <Surface Efficiency>  (1) 
0

>  <Assay Index>  (1) 
497257

>  <Assay Category>  (1) 


>  <Assay Organism>  (1) 


>  <Target ID>  (1) 
11365

>  <Target Name>  (1) 
Cytochrome P450 2D6

>  <Target Organism>  (1) 
Homo sapiens

>  <Target Description>  (1) 
Target is a single protein chain

>  <Sequence Accession>  (1) 
P10635

>  <Reference>  (1) 
Bioorg Med Chem Lett 20 (18), 5559-5566 (2010)

>  <Pubmed ID>  (1) 
20691589

>  <DOI>  (1) 
10.1016/j.bmcl.2010.07.020

$$$$
