4wnv_ligand_736
     RDKit          2D

 21 23  0  0  0  0  0  0  0  0999 V2000
    0.0000   -0.0000   -0.0000 S   0  0  0  0  0  0  0  0  0  0  0  0
    1.4526    0.3215   -0.0000 C   0  0  0  0  0  0  0  0  0  0  0  0
   -0.4763   -1.4169   -0.0000 C   0  0  0  0  0  0  0  0  0  0  0  0
    1.8932    1.7503   -0.0000 C   0  0  0  0  0  0  0  0  0  0  0  0
    2.4409   -0.7858   -0.0000 C   0  0  0  0  0  0  0  0  0  0  0  0
   -1.9289   -1.8693   -0.0000 C   0  0  0  0  0  0  0  0  0  0  0  0
    0.4048   -2.6314   -0.0000 C   0  0  0  0  0  0  0  0  0  0  0  0
    3.3458    2.0837   -0.0000 C   0  0  0  0  0  0  0  0  0  0  0  0
    0.8692    2.8695   -0.0000 C   0  0  0  0  0  0  0  0  0  0  0  0
    3.8935   -0.4644   -0.0000 C   0  0  0  0  0  0  0  0  0  0  0  0
   -1.9408   -3.3696   -0.0000 C   0  0  0  0  0  0  0  0  0  0  0  0
   -3.2386   -1.1192   -0.0000 C   0  0  0  0  0  0  0  0  0  0  0  0
    1.4526   -1.5479   -0.0000 O   0  0  0  0  0  0  0  0  0  0  0  0
   -0.5001   -3.8459   -0.0000 C   0  0  0  0  0  0  0  0  0  0  0  0
    1.8932   -2.6195   -0.0000 C   0  0  0  0  0  0  0  0  0  0  0  0
    4.3459    0.9763   -0.0000 C   0  0  0  0  0  0  0  0  0  0  0  0
   -3.2505   -4.1078   -0.0000 C   0  0  0  0  0  0  0  0  0  0  0  0
   -4.5483   -1.8574   -0.0000 C   0  0  0  0  0  0  0  0  0  0  0  0
    2.6314   -3.9054   -0.0000 N   0  0  0  0  0  0  0  0  0  0  0  0
   -4.5603   -3.3458   -0.0000 C   0  0  0  0  0  0  0  0  0  0  0  0
    4.1197   -3.8935   -0.0000 C   0  0  0  0  0  0  0  0  0  0  0  0
  1  2  1  0
  1  3  1  0
  2  4  2  0
  2  5  1  0
  3  6  1  0
  3  7  1  0
  4  8  1  0
  4  9  1  0
  5 10  2  0
  6 11  2  0
  6 12  1  0
  7 13  1  0
  7 14  1  0
  7 15  1  0
  8 16  2  0
 11 17  1  0
 12 18  2  0
 15 19  1  0
 17 20  2  0
 19 21  1  0
 10 16  1  0
 11 14  1  0
 18 20  1  0
M  END
>  <MolRegNo>  (1) 
453376

>  <m>  (1) 
=

>  <Value>  (1) 
400

>  <Unit>  (1) 
nM

>  <Type>  (1) 
IC50

>  <pValue>  (1) 
6.4

>  <Ligand Efficiency>  (1) 
0

>  <Binding Efficiency>  (1) 
0

>  <Surface Efficiency>  (1) 
0

>  <Assay Index>  (1) 
407281

>  <Assay Category>  (1) 


>  <Assay Organism>  (1) 


>  <Target ID>  (1) 
11365

>  <Target Name>  (1) 
Cytochrome P450 2D6

>  <Target Organism>  (1) 
Homo sapiens

>  <Target Description>  (1) 
Target is a single protein chain

>  <Sequence Accession>  (1) 
P10635

>  <Reference>  (1) 
Bioorg Med Chem Lett 18 (23), 6151-6155 (2008)

>  <Pubmed ID>  (1) 
18954981

>  <DOI>  (1) 
10.1016/j.bmcl.2008.10.013

$$$$
