4wnv_ligand_447
     RDKit          2D

 37 40  0  0  1  0  0  0  0  0999 V2000
    0.0000   -0.0000   -0.0000 S   0  0  0  0  0  0  0  0  0  0  0  0
    1.2048    0.8947   -0.0000 C   0  0  0  0  0  0  0  0  0  0  0  0
    0.4533   -1.4195   -0.0000 C   0  0  0  0  0  0  0  0  0  0  0  0
    2.4096    0.0239   -0.0000 N   0  0  0  0  0  0  0  0  0  0  0  0
    1.1929    2.4096   -0.0000 N   0  0  0  0  0  0  0  0  0  0  0  0
    1.9444   -1.4076   -0.0000 C   0  0  0  0  0  0  0  0  0  0  0  0
   -0.3340   -2.6840   -0.0000 C   0  0  0  0  0  0  0  0  0  0  0  0
   -0.1193    3.1850   -0.0000 C   0  0  0  0  0  0  0  0  0  0  0  0
    2.8152   -2.6005   -0.0000 C   0  0  0  0  0  0  0  0  0  0  0  0
   -1.8490   -2.6482   -0.0000 O   0  0  0  0  0  0  0  0  0  0  0  0
    0.3817   -3.9842   -0.0000 C   0  0  0  0  0  0  0  0  0  0  0  0
   -1.4314    2.4454   -0.0000 O   0  0  0  0  0  0  0  0  0  0  0  0
   -0.1312    4.6999   -0.0000 N   0  0  0  0  0  0  0  0  0  0  0  0
   -1.4434    5.4634   -0.0000 C   0  0  0  0  0  0  0  0  0  0  0  0
   -1.4553    6.9783   -0.0000 C   0  0  0  0  0  0  0  0  0  0  0  0
   -2.7555    4.7357   -0.0000 C   0  0  0  0  0  0  0  0  0  0  0  0
   -2.7675    7.7537   -0.0000 C   0  0  0  0  0  0  0  0  0  0  0  0
   -0.1551    7.7418   -0.0000 C   0  0  0  0  0  0  0  0  0  0  0  0
   -4.0677    5.4872   -0.0000 C   0  0  0  0  0  0  0  0  0  0  0  0
   -4.0796    7.0022   -0.0000 N   0  0  0  0  0  0  0  0  0  0  0  0
    1.1332    6.9902   -0.0000 N   0  0  0  0  0  0  0  0  0  0  0  0
   -5.3918    7.7537   -0.0000 C   0  0  0  0  0  0  0  0  0  0  0  0
    2.4215    7.7537   -0.0000 C   0  0  0  0  0  0  0  0  0  0  0  0
    1.1213    5.4872   -0.0000 C   0  0  0  0  0  0  0  0  0  0  0  0
   -6.6920    7.0141   -0.0000 C   0  0  0  0  0  0  0  0  0  0  0  0
    3.7098    7.0022   -0.0000 C   0  0  0  0  0  0  0  0  0  0  0  0
    2.4096    4.7476   -0.0000 C   0  0  0  0  0  0  0  0  0  0  0  0
   -7.9923    6.2745   -0.0000 N   0  0  0  0  0  0  0  0  0  0  0  0
    3.6860    5.5111   -0.0000 C   0  0  0  0  0  0  0  0  0  0  0  0
    5.0101    7.7656   -0.0000 C   0  0  0  0  0  0  0  0  0  0  0  0
    6.2984    7.0141   -0.0000 C   0  0  0  0  0  0  0  0  0  0  0  0
    6.2626    5.5230   -0.0000 C   0  0  0  0  0  0  0  0  0  0  0  0
    7.5867    7.7775   -0.0000 C   0  0  0  0  0  0  0  0  0  0  0  0
    7.5509    4.7834   -0.0000 C   0  0  0  0  0  0  0  0  0  0  0  0
    8.8750    7.0260   -0.0000 C   0  0  0  0  0  0  0  0  0  0  0  0
    8.8511    5.5349   -0.0000 C   0  0  0  0  0  0  0  0  0  0  0  0
   10.1394    4.7954   -0.0000 F   0  0  0  0  0  0  0  0  0  0  0  0
  1  2  1  0
  1  3  1  0
  2  4  2  0
  2  5  1  0
  3  6  2  0
  3  7  1  0
  5  8  1  0
  6  9  1  0
  7 10  2  0
  7 11  1  0
  8 12  2  0
  8 13  1  0
 14 13  1  6
 14 15  1  0
 14 16  1  0
 15 17  1  0
 15 18  1  1
 16 19  1  0
 17 20  1  0
 18 21  1  0
 20 22  1  0
 21 23  1  0
 21 24  1  0
 22 25  1  0
 23 26  1  0
 24 27  1  0
 25 28  3  0
 26 29  1  0
 26 30  1  6
 30 31  1  0
 31 32  2  0
 31 33  1  0
 32 34  1  0
 33 35  2  0
 34 36  2  0
 36 37  1  0
  4  6  1  0
 19 20  1  0
 27 29  1  0
 35 36  1  0
M  END
>  <MolRegNo>  (1) 
421492

>  <m>  (1) 
=

>  <Value>  (1) 
2000

>  <Unit>  (1) 
nM

>  <Type>  (1) 
IC50

>  <pValue>  (1) 
5.7

>  <Ligand Efficiency>  (1) 
0

>  <Binding Efficiency>  (1) 
0

>  <Surface Efficiency>  (1) 
0

>  <Assay Index>  (1) 
307824

>  <Assay Category>  (1) 


>  <Assay Organism>  (1) 
Homo sapiens

>  <Target ID>  (1) 
11365

>  <Target Name>  (1) 
Cytochrome P450 2D6

>  <Target Organism>  (1) 
Homo sapiens

>  <Target Description>  (1) 
Target is a single protein chain

>  <Sequence Accession>  (1) 
P10635

>  <Reference>  (1) 
Bioorg Med Chem Lett 17 (11), 2992-2997 (2007)

>  <Pubmed ID>  (1) 
17418570

>  <DOI>  (1) 
10.1016/j.bmcl.2007.03.065

$$$$
