4wnv_ligand_167
     RDKit          2D

 23 24  0  0  0  0  0  0  0  0999 V2000
    0.0000   -0.0000   -0.0000 O   0  0  0  0  0  0  0  0  0  0  0  0
   -1.3062   -0.7362   -0.0000 N   0  0  0  0  0  0  0  0  0  0  0  0
   -1.3062   -2.2205   -0.0000 O   0  0  0  0  0  0  0  0  0  0  0  0
   -2.6242    0.0119   -0.0000 C   0  0  0  0  0  0  0  0  0  0  0  0
   -2.6361    1.5318   -0.0000 C   0  0  0  0  0  0  0  0  0  0  0  0
   -3.9304   -0.7243   -0.0000 C   0  0  0  0  0  0  0  0  0  0  0  0
   -1.3537    2.2917   -0.0000 N   0  0  0  0  0  0  0  0  0  0  0  0
   -3.9541    2.2799   -0.0000 C   0  0  0  0  0  0  0  0  0  0  0  0
   -5.2365    0.0356   -0.0000 C   0  0  0  0  0  0  0  0  0  0  0  0
   -1.3893    3.7998   -0.0000 C   0  0  0  0  0  0  0  0  0  0  0  0
   -5.2365    1.5318   -0.0000 C   0  0  0  0  0  0  0  0  0  0  0  0
   -6.5427   -0.7125   -0.0000 C   0  0  0  0  0  0  0  0  0  0  0  0
   -0.1069    4.5597   -0.0000 C   0  0  0  0  0  0  0  0  0  0  0  0
   -7.8489    0.0475   -0.0000 C   0  0  0  0  0  0  0  0  0  0  0  0
   -6.5546   -2.1967   -0.0000 C   0  0  0  0  0  0  0  0  0  0  0  0
   -0.1425    6.0677   -0.0000 N   0  0  0  0  0  0  0  0  0  0  0  0
   -9.1550   -0.6887   -0.0000 N   0  0  0  0  0  0  0  0  0  0  0  0
   -7.8726    1.5555   -0.0000 N   0  0  0  0  0  0  0  0  0  0  0  0
   -7.8607   -2.9329   -0.0000 N   0  0  0  0  0  0  0  0  0  0  0  0
   -5.2603   -2.9329   -0.0000 C   0  0  0  0  0  0  0  0  0  0  0  0
   -9.1669   -2.1730   -0.0000 C   0  0  0  0  0  0  0  0  0  0  0  0
   -5.2722   -4.4172   -0.0000 C   0  0  0  0  0  0  0  0  0  0  0  0
  -10.4731   -2.9092   -0.0000 N   0  0  0  0  0  0  0  0  0  0  0  0
  1  2  2  0
  2  3  1  0
  2  4  1  0
  4  5  2  0
  4  6  1  0
  5  7  1  0
  5  8  1  0
  6  9  2  0
  7 10  1  0
  8 11  2  0
  9 12  1  0
 10 13  1  0
 12 14  2  0
 12 15  1  0
 13 16  1  0
 14 17  1  0
 14 18  1  0
 15 19  2  0
 15 20  1  0
 17 21  2  0
 20 22  1  0
 21 23  1  0
  9 11  1  0
 19 21  1  0
M  CHG  2   2   1   3  -1
M  END
>  <MolRegNo>  (1) 
130925

>  <m>  (1) 
=

>  <Value>  (1) 
30000

>  <Unit>  (1) 
nM

>  <Type>  (1) 
IC50

>  <pValue>  (1) 
4.52

>  <Ligand Efficiency>  (1) 
0

>  <Binding Efficiency>  (1) 
0

>  <Surface Efficiency>  (1) 
0

>  <Assay Index>  (1) 
237541

>  <Assay Category>  (1) 


>  <Assay Organism>  (1) 


>  <Target ID>  (1) 
11365

>  <Target Name>  (1) 
Cytochrome P450 2D6

>  <Target Organism>  (1) 
Homo sapiens

>  <Target Description>  (1) 
Target is a single protein chain

>  <Sequence Accession>  (1) 
P10635

>  <Reference>  (1) 
J Med Chem 47 (22), 5340-5346 (2004)

>  <Pubmed ID>  (1) 
15481972

>  <DOI>  (1) 
10.1021/jm049934e

$$$$
