4wnv_ligand_750
     RDKit          2D

 22 24  0  0  0  0  0  0  0  0999 V2000
    0.0000   -0.0000   -0.0000 F   0  0  0  0  0  0  0  0  0  0  0  0
   -0.4640   -1.4158   -0.0000 C   0  0  0  0  0  0  0  0  0  0  0  0
   -1.9393   -1.7252   -0.0000 C   0  0  0  0  0  0  0  0  0  0  0  0
    0.5354   -2.5223   -0.0000 C   0  0  0  0  0  0  0  0  0  0  0  0
   -2.4033   -3.1291   -0.0000 C   0  0  0  0  0  0  0  0  0  0  0  0
   -2.9625   -0.6068   -0.0000 C   0  0  0  0  0  0  0  0  0  0  0  0
    0.0595   -3.9381   -0.0000 C   0  0  0  0  0  0  0  0  0  0  0  0
   -3.8786   -3.4265   -0.0000 O   0  0  0  0  0  0  0  0  0  0  0  0
   -1.4158   -4.2355   -0.0000 C   0  0  0  0  0  0  0  0  0  0  0  0
   -4.3545   -4.8423   -0.0000 C   0  0  0  0  0  0  0  0  0  0  0  0
   -5.8060   -5.2944   -0.0000 C   0  0  0  0  0  0  0  0  0  0  0  0
   -3.4741   -6.0559   -0.0000 C   0  0  0  0  0  0  0  0  0  0  0  0
   -5.8179   -6.7935   -0.0000 C   0  0  0  0  0  0  0  0  0  0  0  0
   -7.1148   -4.5330   -0.0000 C   0  0  0  0  0  0  0  0  0  0  0  0
   -2.4271   -4.9732   -0.0000 O   0  0  0  0  0  0  0  0  0  0  0  0
   -4.3783   -7.2694   -0.0000 C   0  0  0  0  0  0  0  0  0  0  0  0
   -2.1892   -6.7935   -0.0000 C   0  0  0  0  0  0  0  0  0  0  0  0
   -7.1267   -7.5312   -0.0000 C   0  0  0  0  0  0  0  0  0  0  0  0
   -8.4235   -5.2706   -0.0000 C   0  0  0  0  0  0  0  0  0  0  0  0
   -2.2011   -8.2807   -0.0000 N   0  0  0  0  0  0  0  0  0  0  0  0
   -8.4354   -6.7697   -0.0000 C   0  0  0  0  0  0  0  0  0  0  0  0
   -0.9161   -9.0184   -0.0000 C   0  0  0  0  0  0  0  0  0  0  0  0
  1  2  1  0
  2  3  2  0
  2  4  1  0
  3  5  1  0
  3  6  1  0
  4  7  2  0
  5  8  1  0
  5  9  2  0
 10  8  1  6
 10 11  1  0
 10 12  1  0
 11 13  2  0
 11 14  1  0
 12 15  1  1
 12 16  1  0
 12 17  1  0
 13 18  1  0
 14 19  2  0
 17 20  1  0
 18 21  2  0
 20 22  1  0
  7  9  1  0
 13 16  1  0
 19 21  1  0
M  END
>  <MolRegNo>  (1) 
452513

>  <m>  (1) 
=

>  <Value>  (1) 
1500

>  <Unit>  (1) 
nM

>  <Type>  (1) 
IC50

>  <pValue>  (1) 
5.82

>  <Ligand Efficiency>  (1) 
0

>  <Binding Efficiency>  (1) 
0

>  <Surface Efficiency>  (1) 
0

>  <Assay Index>  (1) 
407281

>  <Assay Category>  (1) 


>  <Assay Organism>  (1) 


>  <Target ID>  (1) 
11365

>  <Target Name>  (1) 
Cytochrome P450 2D6

>  <Target Organism>  (1) 
Homo sapiens

>  <Target Description>  (1) 
Target is a single protein chain

>  <Sequence Accession>  (1) 
P10635

>  <Reference>  (1) 
Bioorg Med Chem Lett 18 (23), 6151-6155 (2008)

>  <Pubmed ID>  (1) 
18954981

>  <DOI>  (1) 
10.1016/j.bmcl.2008.10.013

$$$$
