4wnv_ligand_69
     RDKit          2D

 14 14  0  0  0  0  0  0  0  0999 V2000
    0.0000   -0.0000   -0.0000 O   0  0  0  0  0  0  0  0  0  0  0  0
   -1.3056    0.7528   -0.0000 N   0  0  0  0  0  0  0  0  0  0  0  0
   -2.6112    0.0235   -0.0000 C   0  0  0  0  0  0  0  0  0  0  0  0
   -3.9286    0.7645   -0.0000 N   0  0  0  0  0  0  0  0  0  0  0  0
   -5.2342    0.0235   -0.0000 C   0  0  0  0  0  0  0  0  0  0  0  0
   -5.2460   -1.4585   -0.0000 C   0  0  0  0  0  0  0  0  0  0  0  0
   -6.5398    0.7763   -0.0000 C   0  0  0  0  0  0  0  0  0  0  0  0
   -6.5516   -2.1878   -0.0000 C   0  0  0  0  0  0  0  0  0  0  0  0
   -7.8454    0.0470   -0.0000 C   0  0  0  0  0  0  0  0  0  0  0  0
   -7.8572   -1.4350   -0.0000 C   0  0  0  0  0  0  0  0  0  0  0  0
   -9.1628   -2.1643   -0.0000 C   0  0  0  0  0  0  0  0  0  0  0  0
  -10.4684   -1.4115   -0.0000 C   0  0  0  0  0  0  0  0  0  0  0  0
  -11.7858   -2.1407   -0.0000 C   0  0  0  0  0  0  0  0  0  0  0  0
  -13.0914   -1.3879   -0.0000 C   0  0  0  0  0  0  0  0  0  0  0  0
  1  2  1  0
  2  3  2  0
  3  4  1  0
  4  5  1  0
  5  6  2  0
  5  7  1  0
  6  8  1  0
  7  9  2  0
  8 10  2  0
 10 11  1  0
 11 12  1  0
 12 13  1  0
 13 14  1  0
  9 10  1  0
M  END
>  <MolRegNo>  (1) 
166306

>  <m>  (1) 
=

>  <Value>  (1) 
83000

>  <Unit>  (1) 
nM

>  <Type>  (1) 
IC50

>  <pValue>  (1) 
4.08

>  <Ligand Efficiency>  (1) 
0

>  <Binding Efficiency>  (1) 
0

>  <Surface Efficiency>  (1) 
0

>  <Assay Index>  (1) 
51644

>  <Assay Category>  (1) 


>  <Assay Organism>  (1) 
Homo sapiens

>  <Target ID>  (1) 
11365

>  <Target Name>  (1) 
Cytochrome P450 2D6

>  <Target Organism>  (1) 
Homo sapiens

>  <Target Description>  (1) 
Target is a single protein chain

>  <Sequence Accession>  (1) 
P10635

>  <Reference>  (1) 
Bioorg Med Chem Lett 11 (23), 2993-2995 (2001)

>  <Pubmed ID>  (1) 
11714595

>  <DOI>  (1) 
10.1016/s0960-894x(01)00614-x

$$$$
