4wnv_ligand_429
     RDKit          2D

 40 43  0  0  1  0  0  0  0  0999 V2000
    0.0000   -0.0000   -0.0000 S   0  0  0  0  0  0  0  0  0  0  0  0
    1.2050    0.8948   -0.0000 C   0  0  0  0  0  0  0  0  0  0  0  0
    0.4534   -1.4198   -0.0000 C   0  0  0  0  0  0  0  0  0  0  0  0
    2.4101    0.0358   -0.0000 N   0  0  0  0  0  0  0  0  0  0  0  0
    1.1931    2.4101   -0.0000 N   0  0  0  0  0  0  0  0  0  0  0  0
    1.9448   -1.4079   -0.0000 C   0  0  0  0  0  0  0  0  0  0  0  0
   -0.3341   -2.6845   -0.0000 C   0  0  0  0  0  0  0  0  0  0  0  0
   -0.1193    3.1856   -0.0000 C   0  0  0  0  0  0  0  0  0  0  0  0
    2.8158   -2.6010   -0.0000 C   0  0  0  0  0  0  0  0  0  0  0  0
   -1.8493   -2.6487   -0.0000 O   0  0  0  0  0  0  0  0  0  0  0  0
    0.3818   -3.9850   -0.0000 C   0  0  0  0  0  0  0  0  0  0  0  0
   -1.4317    2.4459   -0.0000 O   0  0  0  0  0  0  0  0  0  0  0  0
   -0.1312    4.7009   -0.0000 N   0  0  0  0  0  0  0  0  0  0  0  0
   -1.4437    5.4645   -0.0000 C   0  0  0  0  0  0  0  0  0  0  0  0
   -1.4556    6.9797   -0.0000 C   0  0  0  0  0  0  0  0  0  0  0  0
   -2.7561    4.7367   -0.0000 C   0  0  0  0  0  0  0  0  0  0  0  0
   -2.7680    7.7553   -0.0000 C   0  0  0  0  0  0  0  0  0  0  0  0
   -0.1551    7.7433   -0.0000 C   0  0  0  0  0  0  0  0  0  0  0  0
   -4.0685    5.4883   -0.0000 N   0  0  0  0  0  0  0  0  0  0  0  0
   -4.0805    7.0036   -0.0000 C   0  0  0  0  0  0  0  0  0  0  0  0
    1.1335    6.9917   -0.0000 N   0  0  0  0  0  0  0  0  0  0  0  0
   -5.3690    4.7486   -0.0000 C   0  0  0  0  0  0  0  0  0  0  0  0
    2.4220    7.7553   -0.0000 C   0  0  0  0  0  0  0  0  0  0  0  0
    1.1215    5.4883   -0.0000 C   0  0  0  0  0  0  0  0  0  0  0  0
   -5.3810    3.2691   -0.0000 O   0  0  0  0  0  0  0  0  0  0  0  0
   -6.6815    5.5003   -0.0000 C   0  0  0  0  0  0  0  0  0  0  0  0
    3.7106    7.0036   -0.0000 C   0  0  0  0  0  0  0  0  0  0  0  0
    2.4101    4.7486   -0.0000 C   0  0  0  0  0  0  0  0  0  0  0  0
   -7.9820    4.7605   -0.0000 N   0  0  0  0  0  0  0  0  0  0  0  0
    3.6867    5.5122   -0.0000 C   0  0  0  0  0  0  0  0  0  0  0  0
    5.0111    7.7672   -0.0000 C   0  0  0  0  0  0  0  0  0  0  0  0
   -9.2944    5.5122   -0.0000 C   0  0  0  0  0  0  0  0  0  0  0  0
   -7.9939    3.2691   -0.0000 C   0  0  0  0  0  0  0  0  0  0  0  0
    6.2997    7.0155   -0.0000 C   0  0  0  0  0  0  0  0  0  0  0  0
    6.2639    5.5241   -0.0000 C   0  0  0  0  0  0  0  0  0  0  0  0
    7.5882    7.7791   -0.0000 C   0  0  0  0  0  0  0  0  0  0  0  0
    7.5524    4.7844   -0.0000 C   0  0  0  0  0  0  0  0  0  0  0  0
    8.8768    7.0275   -0.0000 C   0  0  0  0  0  0  0  0  0  0  0  0
    8.8529    5.5361   -0.0000 C   0  0  0  0  0  0  0  0  0  0  0  0
   10.1415    4.7963   -0.0000 F   0  0  0  0  0  0  0  0  0  0  0  0
  1  2  1  0
  1  3  1  0
  2  4  2  0
  2  5  1  0
  3  6  2  0
  3  7  1  0
  5  8  1  0
  6  9  1  0
  7 10  2  0
  7 11  1  0
  8 12  2  0
  8 13  1  0
 14 13  1  6
 14 15  1  0
 14 16  1  0
 15 17  1  0
 15 18  1  1
 16 19  1  0
 17 20  1  0
 18 21  1  0
 19 22  1  0
 21 23  1  0
 21 24  1  0
 22 25  2  0
 22 26  1  0
 23 27  1  0
 24 28  1  0
 26 29  1  0
 27 30  1  0
 27 31  1  6
 29 32  1  0
 29 33  1  0
 31 34  1  0
 34 35  2  0
 34 36  1  0
 35 37  1  0
 36 38  2  0
 37 39  2  0
 39 40  1  0
  4  6  1  0
 19 20  1  0
 28 30  1  0
 38 39  1  0
M  END
>  <MolRegNo>  (1) 
421517

>  <m>  (1) 
=

>  <Value>  (1) 
500

>  <Unit>  (1) 
nM

>  <Type>  (1) 
IC50

>  <pValue>  (1) 
6.3

>  <Ligand Efficiency>  (1) 
0

>  <Binding Efficiency>  (1) 
0

>  <Surface Efficiency>  (1) 
0

>  <Assay Index>  (1) 
307824

>  <Assay Category>  (1) 


>  <Assay Organism>  (1) 
Homo sapiens

>  <Target ID>  (1) 
11365

>  <Target Name>  (1) 
Cytochrome P450 2D6

>  <Target Organism>  (1) 
Homo sapiens

>  <Target Description>  (1) 
Target is a single protein chain

>  <Sequence Accession>  (1) 
P10635

>  <Reference>  (1) 
Bioorg Med Chem Lett 17 (11), 2992-2997 (2007)

>  <Pubmed ID>  (1) 
17418570

>  <DOI>  (1) 
10.1016/j.bmcl.2007.03.065

$$$$
