4wnv_ligand_765
     RDKit          2D

 22 24  0  0  0  0  0  0  0  0999 V2000
    0.0000   -0.0000   -0.0000 N   0  0  0  0  0  0  0  0  0  0  0  0
   -1.4491    0.4751   -0.0000 C   0  0  0  0  0  0  0  0  0  0  0  0
    0.8789    1.2353   -0.0000 C   0  0  0  0  0  0  0  0  0  0  0  0
   -1.4609    1.9954   -0.0000 N   0  0  0  0  0  0  0  0  0  0  0  0
   -2.7556   -0.2613   -0.0000 C   0  0  0  0  0  0  0  0  0  0  0  0
   -0.0238    2.4705   -0.0000 C   0  0  0  0  0  0  0  0  0  0  0  0
    2.3636    1.2471   -0.0000 C   0  0  0  0  0  0  0  0  0  0  0  0
   -2.7794    2.7437   -0.0000 C   0  0  0  0  0  0  0  0  0  0  0  0
   -2.7675   -1.7460   -0.0000 N   0  0  0  0  0  0  0  0  0  0  0  0
   -4.0621    0.4989   -0.0000 C   0  0  0  0  0  0  0  0  0  0  0  0
    0.4276    3.9077   -0.0000 C   0  0  0  0  0  0  0  0  0  0  0  0
   -4.0740    2.0073   -0.0000 C   0  0  0  0  0  0  0  0  0  0  0  0
   -4.0740   -2.4824   -0.0000 C   0  0  0  0  0  0  0  0  0  0  0  0
   -4.0859   -3.9671   -0.0000 C   0  0  0  0  0  0  0  0  0  0  0  0
   -2.8031   -4.6916   -0.0000 C   0  0  0  0  0  0  0  0  0  0  0  0
   -5.3924   -4.6916   -0.0000 C   0  0  0  0  0  0  0  0  0  0  0  0
   -2.8150   -6.1763   -0.0000 C   0  0  0  0  0  0  0  0  0  0  0  0
   -1.5203   -3.9315   -0.0000 C   0  0  0  0  0  0  0  0  0  0  0  0
   -5.4043   -6.1763   -0.0000 C   0  0  0  0  0  0  0  0  0  0  0  0
   -6.6990   -3.9315   -0.0000 C   0  0  0  0  0  0  0  0  0  0  0  0
   -4.1334   -6.9246   -0.0000 C   0  0  0  0  0  0  0  0  0  0  0  0
   -0.2376   -4.6679   -0.0000 C   0  0  0  0  0  0  0  0  0  0  0  0
  1  2  2  0
  1  3  1  0
  2  4  1  0
  2  5  1  0
  3  6  2  0
  3  7  1  0
  4  8  1  0
  5  9  1  0
  5 10  2  0
  6 11  1  0
  8 12  2  0
  9 13  1  0
 13 14  1  0
 14 15  2  0
 14 16  1  0
 15 17  1  0
 15 18  1  0
 16 19  2  0
 16 20  1  0
 17 21  2  0
 18 22  1  0
  4  6  1  0
 10 12  1  0
 19 21  1  0
M  END
>  <MolRegNo>  (1) 
501484

>  <m>  (1) 
=

>  <Value>  (1) 
1100

>  <Unit>  (1) 
nM

>  <Type>  (1) 
IC50

>  <pValue>  (1) 
5.96

>  <Ligand Efficiency>  (1) 
0

>  <Binding Efficiency>  (1) 
0

>  <Surface Efficiency>  (1) 
0

>  <Assay Index>  (1) 
368751

>  <Assay Category>  (1) 


>  <Assay Organism>  (1) 


>  <Target ID>  (1) 
11365

>  <Target Name>  (1) 
Cytochrome P450 2D6

>  <Target Organism>  (1) 
Homo sapiens

>  <Target Description>  (1) 
Target is a single protein chain

>  <Sequence Accession>  (1) 
P10635

>  <Reference>  (1) 
Bioorg Med Chem Lett 19 (13), 3602-3606 (2009)

>  <Pubmed ID>  (1) 
19467868

>  <DOI>  (1) 
10.1016/j.bmcl.2009.04.127

$$$$
