4wnv_ligand_690
     RDKit          2D

 34 37  0  0  0  0  0  0  0  0999 V2000
    0.0000   -0.0000   -0.0000 O   0  0  0  0  0  0  0  0  0  0  0  0
    1.4542   -0.3099   -0.0000 C   0  0  0  0  0  0  0  0  0  0  0  0
    2.4555    0.8105   -0.0000 O   0  0  0  0  0  0  0  0  0  0  0  0
    1.8952   -1.7284   -0.0000 N   0  0  0  0  0  0  0  0  0  0  0  0
    3.9097    0.5006   -0.0000 C   0  0  0  0  0  0  0  0  0  0  0  0
    0.8701   -2.8250   -0.0000 C   0  0  0  0  0  0  0  0  0  0  0  0
    5.3400    0.1192   -0.0000 C   0  0  0  0  0  0  0  0  0  0  0  0
    4.2553    1.9668   -0.0000 C   0  0  0  0  0  0  0  0  0  0  0  0
    3.5402   -0.9536   -0.0000 C   0  0  0  0  0  0  0  0  0  0  0  0
    1.3112   -4.2434   -0.0000 C   0  0  0  0  0  0  0  0  0  0  0  0
    2.7296   -4.7083   -0.0000 N   0  0  0  0  0  0  0  0  0  0  0  0
    0.4053   -5.4473   -0.0000 N   0  0  0  0  0  0  0  0  0  0  0  0
    2.7058   -6.1983   -0.0000 O   0  0  0  0  0  0  0  0  0  0  0  0
    1.2635   -6.6512   -0.0000 C   0  0  0  0  0  0  0  0  0  0  0  0
    0.7867   -8.0577   -0.0000 C   0  0  0  0  0  0  0  0  0  0  0  0
    1.6688   -9.2735   -0.0000 N   0  0  0  0  0  0  0  0  0  0  0  0
   -0.6675   -8.5107   -0.0000 C   0  0  0  0  0  0  0  0  0  0  0  0
    0.7629  -10.4894   -0.0000 N   0  0  0  0  0  0  0  0  0  0  0  0
   -0.6794  -10.0126   -0.0000 C   0  0  0  0  0  0  0  0  0  0  0  0
   -1.9787   -7.7478   -0.0000 C   0  0  0  0  0  0  0  0  0  0  0  0
    1.2158  -11.9078   -0.0000 C   0  0  0  0  0  0  0  0  0  0  0  0
   -1.9906  -10.7516   -0.0000 C   0  0  0  0  0  0  0  0  0  0  0  0
   -3.2898   -8.4868   -0.0000 C   0  0  0  0  0  0  0  0  0  0  0  0
    0.4768  -13.2070   -0.0000 C   0  0  0  0  0  0  0  0  0  0  0  0
   -3.3018   -9.9887   -0.0000 C   0  0  0  0  0  0  0  0  0  0  0  0
   -1.0370  -13.2190   -0.0000 C   0  0  0  0  0  0  0  0  0  0  0  0
    1.2397  -14.4705   -0.0000 C   0  0  0  0  0  0  0  0  0  0  0  0
   -1.7760  -14.5182   -0.0000 C   0  0  0  0  0  0  0  0  0  0  0  0
    0.5125  -15.7698   -0.0000 C   0  0  0  0  0  0  0  0  0  0  0  0
   -1.0132  -15.7936   -0.0000 C   0  0  0  0  0  0  0  0  0  0  0  0
   -1.7522  -17.0929   -0.0000 N   0  0  0  0  0  0  0  0  0  0  0  0
   -3.2660  -17.1048   -0.0000 C   0  0  0  0  0  0  0  0  0  0  0  0
   -4.0527  -15.8055   -0.0000 O   0  0  0  0  0  0  0  0  0  0  0  0
   -4.0050  -18.4040   -0.0000 C   0  0  0  0  0  0  0  0  0  0  0  0
  1  2  2  0
  2  3  1  0
  2  4  1  0
  3  5  1  0
  4  6  1  0
  5  7  1  0
  5  8  1  0
  5  9  1  0
  6 10  1  0
 10 11  2  0
 10 12  1  0
 11 13  1  0
 12 14  2  0
 14 15  1  0
 15 16  2  0
 15 17  1  0
 16 18  1  0
 17 19  2  0
 17 20  1  0
 18 21  1  0
 19 22  1  0
 20 23  2  0
 21 24  1  0
 22 25  2  0
 24 26  2  0
 24 27  1  0
 26 28  1  0
 27 29  2  0
 28 30  2  0
 30 31  1  0
 31 32  1  0
 32 33  2  0
 32 34  1  0
 13 14  1  0
 18 19  1  0
 23 25  1  0
 29 30  1  0
M  END
>  <MolRegNo>  (1) 
480242

>  <m>  (1) 
=

>  <Value>  (1) 
13000

>  <Unit>  (1) 
nM

>  <Type>  (1) 
IC50

>  <pValue>  (1) 
4.89

>  <Ligand Efficiency>  (1) 
0

>  <Binding Efficiency>  (1) 
0

>  <Surface Efficiency>  (1) 
0

>  <Assay Index>  (1) 
349782

>  <Assay Category>  (1) 


>  <Assay Organism>  (1) 
Homo sapiens

>  <Target ID>  (1) 
11365

>  <Target Name>  (1) 
Cytochrome P450 2D6

>  <Target Organism>  (1) 
Homo sapiens

>  <Target Description>  (1) 
Target is a single protein chain

>  <Sequence Accession>  (1) 
P10635

>  <Reference>  (1) 
J Med Chem 52 (9), 2694-2707 (2009)

>  <Pubmed ID>  (1) 
19341281

>  <DOI>  (1) 
10.1021/jm801180p

$$$$
