4wnv_ligand_878
     RDKit          2D

 26 29  0  0  0  0  0  0  0  0999 V2000
    0.0000   -0.0000   -0.0000 N   0  0  0  0  0  0  0  0  0  0  0  0
   -0.9006   -1.2087   -0.0000 C   0  0  0  0  0  0  0  0  0  0  0  0
    1.4220   -0.4503   -0.0000 C   0  0  0  0  0  0  0  0  0  0  0  0
   -2.4174   -1.1969   -0.0000 N   0  0  0  0  0  0  0  0  0  0  0  0
   -0.0237   -2.4174   -0.0000 N   0  0  0  0  0  0  0  0  0  0  0  0
    1.4102   -1.9434   -0.0000 C   0  0  0  0  0  0  0  0  0  0  0  0
    2.7137    0.3081   -0.0000 C   0  0  0  0  0  0  0  0  0  0  0  0
   -3.1758   -2.4885   -0.0000 C   0  0  0  0  0  0  0  0  0  0  0  0
   -3.1758    0.1185   -0.0000 C   0  0  0  0  0  0  0  0  0  0  0  0
   -0.4977   -3.8394   -0.0000 C   0  0  0  0  0  0  0  0  0  0  0  0
    2.7018   -2.6781   -0.0000 C   0  0  0  0  0  0  0  0  0  0  0  0
    4.0053   -0.4385   -0.0000 C   0  0  0  0  0  0  0  0  0  0  0  0
   -4.6926   -2.4767   -0.0000 C   0  0  0  0  0  0  0  0  0  0  0  0
   -4.6926    0.1304   -0.0000 C   0  0  0  0  0  0  0  0  0  0  0  0
    0.4977   -4.9415   -0.0000 C   0  0  0  0  0  0  0  0  0  0  0  0
    3.9935   -1.9197   -0.0000 C   0  0  0  0  0  0  0  0  0  0  0  0
   -5.4629   -1.1613   -0.0000 C   0  0  0  0  0  0  0  0  0  0  0  0
    0.0237   -6.3635   -0.0000 C   0  0  0  0  0  0  0  0  0  0  0  0
    1.9553   -4.6215   -0.0000 C   0  0  0  0  0  0  0  0  0  0  0  0
   -6.9797   -1.1495   -0.0000 N   0  0  0  0  0  0  0  0  0  0  0  0
    1.0191   -7.4656   -0.0000 C   0  0  0  0  0  0  0  0  0  0  0  0
    2.9507   -5.7236   -0.0000 C   0  0  0  0  0  0  0  0  0  0  0  0
   -7.7381    0.1659   -0.0000 C   0  0  0  0  0  0  0  0  0  0  0  0
   -7.7381   -2.4411   -0.0000 C   0  0  0  0  0  0  0  0  0  0  0  0
    2.4767   -7.1456   -0.0000 C   0  0  0  0  0  0  0  0  0  0  0  0
    3.4721   -8.2477   -0.0000 C   0  0  0  0  0  0  0  0  0  0  0  0
  1  2  2  0
  1  3  1  0
  2  4  1  0
  2  5  1  0
  3  6  2  0
  3  7  1  0
  4  8  1  0
  4  9  1  0
  5 10  1  0
  6 11  1  0
  7 12  2  0
  8 13  1  0
  9 14  1  0
 10 15  1  0
 11 16  2  0
 13 17  1  0
 15 18  2  0
 15 19  1  0
 17 20  1  0
 18 21  1  0
 19 22  2  0
 20 23  1  0
 20 24  1  0
 21 25  2  0
 25 26  1  0
  5  6  1  0
 12 16  1  0
 14 17  1  0
 22 25  1  0
M  END
>  <MolRegNo>  (1) 
566437

>  <m>  (1) 
=

>  <Value>  (1) 
7210

>  <Unit>  (1) 
nM

>  <Type>  (1) 
IC50

>  <pValue>  (1) 
5.14

>  <Ligand Efficiency>  (1) 
0

>  <Binding Efficiency>  (1) 
0

>  <Surface Efficiency>  (1) 
0

>  <Assay Index>  (1) 
429822

>  <Assay Category>  (1) 


>  <Assay Organism>  (1) 


>  <Target ID>  (1) 
11365

>  <Target Name>  (1) 
Cytochrome P450 2D6

>  <Target Organism>  (1) 
Homo sapiens

>  <Target Description>  (1) 
Target is a single protein chain

>  <Sequence Accession>  (1) 
P10635

>  <Reference>  (1) 
Bioorg Med Chem Lett 19 (15), 4380-4384 (2009)

>  <Pubmed ID>  (1) 
19553115

>  <DOI>  (1) 
10.1016/j.bmcl.2009.05.086

$$$$
