4wnv_ligand_37
     RDKit          2D

 52 57  0  0  1  0  0  0  0  0999 V2000
    0.0000   -0.0000   -0.0000 F   0  0  0  0  0  0  0  0  0  0  0  0
    1.3097    0.7552   -0.0000 C   0  0  0  0  0  0  0  0  0  0  0  0
    2.0531   -0.5310   -0.0000 F   0  0  0  0  0  0  0  0  0  0  0  0
    0.5664    2.0649   -0.0000 F   0  0  0  0  0  0  0  0  0  0  0  0
    2.5959    1.5221   -0.0000 C   0  0  0  0  0  0  0  0  0  0  0  0
    2.5841    3.0325   -0.0000 N   0  0  0  0  0  0  0  0  0  0  0  0
    1.2743    3.7876   -0.0000 C   0  0  0  0  0  0  0  0  0  0  0  0
   -0.0354    3.0443   -0.0000 O   0  0  0  0  0  0  0  0  0  0  0  0
    1.2625    5.2980   -0.0000 C   0  0  0  0  0  0  0  0  0  0  0  0
    2.5487    6.0532   -0.0000 N   0  0  0  0  0  0  0  0  0  0  0  0
   -0.0472    6.0532   -0.0000 C   0  0  0  0  0  0  0  0  0  0  0  0
    2.5369    7.5635   -0.0000 C   0  0  0  0  0  0  0  0  0  0  0  0
    3.8348    5.3098   -0.0000 C   0  0  0  0  0  0  0  0  0  0  0  0
   -0.0590    7.5635   -0.0000 N   0  0  0  0  0  0  0  0  0  0  0  0
    1.2271    8.3187   -0.0000 C   0  0  0  0  0  0  0  0  0  0  0  0
    5.1210    6.0650   -0.0000 C   0  0  0  0  0  0  0  0  0  0  0  0
   -1.3923    8.3187   -0.0000 C   0  0  0  0  0  0  0  0  0  0  0  0
    5.1092    7.5753   -0.0000 O   0  0  0  0  0  0  0  0  0  0  0  0
    6.4071    5.3216   -0.0000 C   0  0  0  0  0  0  0  0  0  0  0  0
   -2.7021    7.5871   -0.0000 C   0  0  0  0  0  0  0  0  0  0  0  0
    7.6933    6.0768   -0.0000 C   0  0  0  0  0  0  0  0  0  0  0  0
   -3.3275    6.2419   -0.0000 C   0  0  0  0  0  0  0  0  0  0  0  0
   -3.7994    8.6018   -0.0000 C   0  0  0  0  0  0  0  0  0  0  0  0
    9.0030    5.3334   -0.0000 C   0  0  0  0  0  0  0  0  0  0  0  0
    7.6815    7.5871   -0.0000 C   0  0  0  0  0  0  0  0  0  0  0  0
   -4.8142    6.4307   -0.0000 N   0  0  0  0  0  0  0  0  0  0  0  0
   -5.1092    7.9057   -0.0000 C   0  0  0  0  0  0  0  0  0  0  0  0
    8.9912    3.8466   -0.0000 O   0  0  0  0  0  0  0  0  0  0  0  0
   10.2892    6.0886   -0.0000 N   0  0  0  0  0  0  0  0  0  0  0  0
    6.9145    8.8968   -0.0000 C   0  0  0  0  0  0  0  0  0  0  0  0
   -5.8526    5.3570   -0.0000 C   0  0  0  0  0  0  0  0  0  0  0  0
   11.5753    5.3452   -0.0000 C   0  0  0  0  0  0  0  0  0  0  0  0
    7.6579   10.2302   -0.0000 C   0  0  0  0  0  0  0  0  0  0  0  0
    5.4042    8.9086   -0.0000 C   0  0  0  0  0  0  0  0  0  0  0  0
   -7.3157    5.6874   -0.0000 C   0  0  0  0  0  0  0  0  0  0  0  0
   -5.4160    3.9410   -0.0000 C   0  0  0  0  0  0  0  0  0  0  0  0
   11.5635    3.8584   -0.0000 C   0  0  0  0  0  0  0  0  0  0  0  0
   12.8615    6.1004   -0.0000 C   0  0  0  0  0  0  0  0  0  0  0  0
    6.8791   11.5399   -0.0000 N   0  0  0  0  0  0  0  0  0  0  0  0
    4.6490   10.2184   -0.0000 C   0  0  0  0  0  0  0  0  0  0  0  0
   -8.3541    4.6136   -0.0000 C   0  0  0  0  0  0  0  0  0  0  0  0
   -6.4543    2.8437   -0.0000 C   0  0  0  0  0  0  0  0  0  0  0  0
   12.8497    3.1151   -0.0000 C   0  0  0  0  0  0  0  0  0  0  0  0
   10.2538    3.1151   -0.0000 C   0  0  0  0  0  0  0  0  0  0  0  0
   12.8497    7.6107   -0.0000 O   0  0  0  0  0  0  0  0  0  0  0  0
   14.1476    5.3570   -0.0000 C   0  0  0  0  0  0  0  0  0  0  0  0
    5.3688   11.5517   -0.0000 C   0  0  0  0  0  0  0  0  0  0  0  0
   -7.9175    3.1977   -0.0000 C   0  0  0  0  0  0  0  0  0  0  0  0
   14.1358    3.8702   -0.0000 O   0  0  0  0  0  0  0  0  0  0  0  0
   12.8379    1.6283   -0.0000 C   0  0  0  0  0  0  0  0  0  0  0  0
   10.2420    1.6283   -0.0000 C   0  0  0  0  0  0  0  0  0  0  0  0
   11.5281    0.8850   -0.0000 C   0  0  0  0  0  0  0  0  0  0  0  0
  1  2  1  0
  2  3  1  0
  2  4  1  0
  2  5  1  0
  5  6  1  0
  6  7  1  0
  7  8  2  0
  9  7  1  6
  9 10  1  0
  9 11  1  0
 10 12  1  0
 10 13  1  0
 11 14  1  0
 12 15  1  0
 13 16  1  0
 14 17  1  0
 16 18  1  1
 16 19  1  0
 17 20  1  0
 21 19  1  1
 20 22  2  0
 20 23  1  0
 21 24  1  0
 21 25  1  0
 22 26  1  0
 23 27  2  0
 24 28  2  0
 24 29  1  0
 25 30  1  0
 26 31  1  0
 32 29  1  6
 30 33  2  0
 30 34  1  0
 31 35  2  0
 31 36  1  0
 32 37  1  0
 32 38  1  0
 33 39  1  0
 34 40  2  0
 35 41  1  0
 36 42  2  0
 37 43  2  0
 37 44  1  0
 38 45  1  6
 38 46  1  0
 39 47  2  0
 41 48  2  0
 43 49  1  0
 43 50  1  0
 44 51  2  0
 50 52  2  0
 14 15  1  0
 26 27  1  0
 40 47  1  0
 42 48  1  0
 46 49  1  0
 51 52  1  0
M  END
>  <MolRegNo>  (1) 
214744

>  <m>  (1) 
=

>  <Value>  (1) 
12000

>  <Unit>  (1) 
nM

>  <Type>  (1) 
IC50

>  <pValue>  (1) 
4.92

>  <Ligand Efficiency>  (1) 
0

>  <Binding Efficiency>  (1) 
0

>  <Surface Efficiency>  (1) 
0

>  <Assay Index>  (1) 
51651

>  <Assay Category>  (1) 


>  <Assay Organism>  (1) 
Homo sapiens

>  <Target ID>  (1) 
11365

>  <Target Name>  (1) 
Cytochrome P450 2D6

>  <Target Organism>  (1) 
Homo sapiens

>  <Target Description>  (1) 
Target is a single protein chain

>  <Sequence Accession>  (1) 
P10635

>  <Reference>  (1) 
Bioorg Med Chem Lett 13 (22), 4027-4030 (2003)

>  <Pubmed ID>  (1) 
14592500

>  <DOI>  (1) 
10.1016/j.bmcl.2003.08.049

$$$$
