4wnv_ligand_350
     RDKit          2D

 36 38  0  0  0  0  0  0  0  0999 V2000
    0.0000   -0.0000   -0.0000 F   0  0  0  0  0  0  0  0  0  0  0  0
    1.2940   -0.7394   -0.0000 C   0  0  0  0  0  0  0  0  0  0  0  0
    2.5879    0.0246   -0.0000 C   0  0  0  0  0  0  0  0  0  0  0  0
    1.2816   -2.2429   -0.0000 C   0  0  0  0  0  0  0  0  0  0  0  0
    2.5756    1.5404   -0.0000 F   0  0  0  0  0  0  0  0  0  0  0  0
    3.8819   -0.7148   -0.0000 C   0  0  0  0  0  0  0  0  0  0  0  0
    2.5756   -2.9823   -0.0000 C   0  0  0  0  0  0  0  0  0  0  0  0
    3.8696   -2.2182   -0.0000 C   0  0  0  0  0  0  0  0  0  0  0  0
    2.5633   -4.4734   -0.0000 F   0  0  0  0  0  0  0  0  0  0  0  0
    5.1635   -2.9700   -0.0000 C   0  0  0  0  0  0  0  0  0  0  0  0
    6.4575   -2.1936   -0.0000 C   0  0  0  0  0  0  0  0  0  0  0  0
    5.1512   -4.4734   -0.0000 C   0  0  0  0  0  0  0  0  0  0  0  0
    6.4452   -0.6778   -0.0000 N   0  0  0  0  0  0  0  0  0  0  0  0
    7.7515   -2.9453   -0.0000 C   0  0  0  0  0  0  0  0  0  0  0  0
    6.4452   -5.2128   -0.0000 C   0  0  0  0  0  0  0  0  0  0  0  0
    7.7392   -4.4488   -0.0000 N   0  0  0  0  0  0  0  0  0  0  0  0
    9.0208   -5.1882   -0.0000 C   0  0  0  0  0  0  0  0  0  0  0  0
   10.3148   -4.4241   -0.0000 N   0  0  0  0  0  0  0  0  0  0  0  0
    9.0085   -6.6917   -0.0000 C   0  0  0  0  0  0  0  0  0  0  0  0
   11.6087   -5.1635   -0.0000 N   0  0  0  0  0  0  0  0  0  0  0  0
   10.3024   -7.4311   -0.0000 C   0  0  0  0  0  0  0  0  0  0  0  0
   13.0259   -4.6706   -0.0000 N   0  0  0  0  0  0  0  0  0  0  0  0
   11.6087   -6.6547   -0.0000 C   0  0  0  0  0  0  0  0  0  0  0  0
   13.9132   -5.8783   -0.0000 C   0  0  0  0  0  0  0  0  0  0  0  0
   13.0383   -7.0983   -0.0000 N   0  0  0  0  0  0  0  0  0  0  0  0
   15.4044   -5.8537   -0.0000 C   0  0  0  0  0  0  0  0  0  0  0  0
   16.8955   -5.8413   -0.0000 F   0  0  0  0  0  0  0  0  0  0  0  0
   15.3797   -4.3379   -0.0000 F   0  0  0  0  0  0  0  0  0  0  0  0
   15.4044   -7.3448   -0.0000 F   0  0  0  0  0  0  0  0  0  0  0  0
   12.4221   -0.5915   -0.0000 F   0  0  0  0  0  0  0  0  0  0  0  0
   13.1615    0.7271   -0.0000 C   0  0  0  0  0  0  0  0  0  0  0  0
   11.8429    1.4911   -0.0000 F   0  0  0  0  0  0  0  0  0  0  0  0
   13.9009    2.0457   -0.0000 F   0  0  0  0  0  0  0  0  0  0  0  0
   14.4555   -0.0123   -0.0000 C   0  0  0  0  0  0  0  0  0  0  0  0
   14.4431   -1.5035   -0.0000 O   0  0  0  0  0  0  0  0  0  0  0  0
   15.7371    0.7641   -0.0000 O   0  0  0  0  0  0  0  0  0  0  0  0
  1  2  1  0
  2  3  2  0
  2  4  1  0
  3  5  1  0
  3  6  1  0
  4  7  2  0
  6  8  2  0
  7  9  1  0
 10  8  1  6
 10 11  1  0
 10 12  1  0
 11 13  1  1
 11 14  1  0
 12 15  1  0
 14 16  1  0
 16 17  1  0
 17 18  2  0
 17 19  1  0
 18 20  1  0
 19 21  2  0
 20 22  1  0
 20 23  1  0
 22 24  2  0
 23 25  2  0
 24 26  1  0
 26 27  1  0
 26 28  1  0
 26 29  1  0
 30 31  1  0
 31 32  1  0
 31 33  1  0
 31 34  1  0
 34 35  2  0
 34 36  1  0
  7  8  1  0
 15 16  1  0
 21 23  1  0
 24 25  1  0
M  END
>  <MolRegNo>  (1) 
385310

>  <m>  (1) 
=

>  <Value>  (1) 
100

>  <Unit>  (1) 
nM

>  <Type>  (1) 
IC50

>  <pValue>  (1) 
7

>  <Ligand Efficiency>  (1) 
0

>  <Binding Efficiency>  (1) 
0

>  <Surface Efficiency>  (1) 
0

>  <Assay Index>  (1) 
288258

>  <Assay Category>  (1) 


>  <Assay Organism>  (1) 


>  <Target ID>  (1) 
11365

>  <Target Name>  (1) 
Cytochrome P450 2D6

>  <Target Organism>  (1) 
Homo sapiens

>  <Target Description>  (1) 
Target is a single protein chain

>  <Sequence Accession>  (1) 
P10635

>  <Reference>  (1) 
Bioorg Med Chem Lett 17 (16), 4579-4583 (2007)

>  <Pubmed ID>  (1) 
17562364

>  <DOI>  (1) 
10.1016/j.bmcl.2007.05.087

$$$$
