4wnv_ligand_445
     RDKit          2D

 38 41  0  0  1  0  0  0  0  0999 V2000
    0.0000   -0.0000   -0.0000 S   0  0  0  0  0  0  0  0  0  0  0  0
    1.2047    0.8945   -0.0000 C   0  0  0  0  0  0  0  0  0  0  0  0
    0.4532   -1.4193   -0.0000 C   0  0  0  0  0  0  0  0  0  0  0  0
    2.4093    0.0239   -0.0000 N   0  0  0  0  0  0  0  0  0  0  0  0
    1.1927    2.4093   -0.0000 N   0  0  0  0  0  0  0  0  0  0  0  0
    1.9442   -1.4074   -0.0000 C   0  0  0  0  0  0  0  0  0  0  0  0
   -0.3340   -2.6836   -0.0000 C   0  0  0  0  0  0  0  0  0  0  0  0
   -0.1193    3.1846   -0.0000 C   0  0  0  0  0  0  0  0  0  0  0  0
    2.8148   -2.6002   -0.0000 C   0  0  0  0  0  0  0  0  0  0  0  0
   -1.8487   -2.6479   -0.0000 O   0  0  0  0  0  0  0  0  0  0  0  0
    0.3817   -3.9837   -0.0000 C   0  0  0  0  0  0  0  0  0  0  0  0
   -1.4313    2.4451   -0.0000 O   0  0  0  0  0  0  0  0  0  0  0  0
   -0.1312    4.6994   -0.0000 N   0  0  0  0  0  0  0  0  0  0  0  0
   -1.4432    5.4627   -0.0000 C   0  0  0  0  0  0  0  0  0  0  0  0
   -1.4551    6.9775   -0.0000 C   0  0  0  0  0  0  0  0  0  0  0  0
   -2.7552    4.7351   -0.0000 C   0  0  0  0  0  0  0  0  0  0  0  0
   -2.7671    7.7528   -0.0000 C   0  0  0  0  0  0  0  0  0  0  0  0
   -0.1551    7.7408   -0.0000 C   0  0  0  0  0  0  0  0  0  0  0  0
   -4.0672    5.4866   -0.0000 C   0  0  0  0  0  0  0  0  0  0  0  0
   -4.0791    7.0013   -0.0000 N   0  0  0  0  0  0  0  0  0  0  0  0
    1.1331    6.9894   -0.0000 N   0  0  0  0  0  0  0  0  0  0  0  0
   -5.3911    7.7528   -0.0000 C   0  0  0  0  0  0  0  0  0  0  0  0
    2.4212    7.7528   -0.0000 C   0  0  0  0  0  0  0  0  0  0  0  0
    1.1212    5.4866   -0.0000 C   0  0  0  0  0  0  0  0  0  0  0  0
   -6.6912    7.0133   -0.0000 C   0  0  0  0  0  0  0  0  0  0  0  0
    3.7094    7.0013   -0.0000 C   0  0  0  0  0  0  0  0  0  0  0  0
    2.4093    4.7471   -0.0000 C   0  0  0  0  0  0  0  0  0  0  0  0
   -6.7031    5.5223   -0.0000 O   0  0  0  0  0  0  0  0  0  0  0  0
   -8.0032    7.7647   -0.0000 C   0  0  0  0  0  0  0  0  0  0  0  0
    3.6855    5.5104   -0.0000 C   0  0  0  0  0  0  0  0  0  0  0  0
    5.0095    7.7647   -0.0000 C   0  0  0  0  0  0  0  0  0  0  0  0
    6.2976    7.0133   -0.0000 C   0  0  0  0  0  0  0  0  0  0  0  0
    6.2618    5.5223   -0.0000 C   0  0  0  0  0  0  0  0  0  0  0  0
    7.5858    7.7766   -0.0000 C   0  0  0  0  0  0  0  0  0  0  0  0
    7.5500    4.7829   -0.0000 C   0  0  0  0  0  0  0  0  0  0  0  0
    8.8739    7.0252   -0.0000 C   0  0  0  0  0  0  0  0  0  0  0  0
    8.8501    5.5343   -0.0000 C   0  0  0  0  0  0  0  0  0  0  0  0
   10.1382    4.7948   -0.0000 F   0  0  0  0  0  0  0  0  0  0  0  0
  1  2  1  0
  1  3  1  0
  2  4  2  0
  2  5  1  0
  3  6  2  0
  3  7  1  0
  5  8  1  0
  6  9  1  0
  7 10  2  0
  7 11  1  0
  8 12  2  0
  8 13  1  0
 14 13  1  6
 14 15  1  0
 14 16  1  0
 15 17  1  0
 15 18  1  1
 16 19  1  0
 17 20  1  0
 18 21  1  0
 20 22  1  0
 21 23  1  0
 21 24  1  0
 22 25  1  0
 23 26  1  0
 24 27  1  0
 25 28  2  0
 25 29  1  0
 26 30  1  0
 26 31  1  6
 31 32  1  0
 32 33  2  0
 32 34  1  0
 33 35  1  0
 34 36  2  0
 35 37  2  0
 37 38  1  0
  4  6  1  0
 19 20  1  0
 27 30  1  0
 36 37  1  0
M  END
>  <MolRegNo>  (1) 
421495

>  <m>  (1) 
=

>  <Value>  (1) 
28000

>  <Unit>  (1) 
nM

>  <Type>  (1) 
IC50

>  <pValue>  (1) 
4.55

>  <Ligand Efficiency>  (1) 
0

>  <Binding Efficiency>  (1) 
0

>  <Surface Efficiency>  (1) 
0

>  <Assay Index>  (1) 
307824

>  <Assay Category>  (1) 


>  <Assay Organism>  (1) 
Homo sapiens

>  <Target ID>  (1) 
11365

>  <Target Name>  (1) 
Cytochrome P450 2D6

>  <Target Organism>  (1) 
Homo sapiens

>  <Target Description>  (1) 
Target is a single protein chain

>  <Sequence Accession>  (1) 
P10635

>  <Reference>  (1) 
Bioorg Med Chem Lett 17 (11), 2992-2997 (2007)

>  <Pubmed ID>  (1) 
17418570

>  <DOI>  (1) 
10.1016/j.bmcl.2007.03.065

$$$$
