4wnv_ligand_272
     RDKit          2D

 21 23  0  0  0  0  0  0  0  0999 V2000
    0.0000   -0.0000   -0.0000 O   0  0  0  0  0  0  0  0  0  0  0  0
   -1.3079   -0.7372   -0.0000 C   0  0  0  0  0  0  0  0  0  0  0  0
   -2.6276    0.0238   -0.0000 O   0  0  0  0  0  0  0  0  0  0  0  0
   -1.3198   -2.2353   -0.0000 C   0  0  0  0  0  0  0  0  0  0  0  0
   -3.9355   -0.7253   -0.0000 C   0  0  0  0  0  0  0  0  0  0  0  0
   -2.6395   -2.9843   -0.0000 C   0  0  0  0  0  0  0  0  0  0  0  0
   -0.0238   -2.9724   -0.0000 C   0  0  0  0  0  0  0  0  0  0  0  0
   -3.9474   -2.2115   -0.0000 C   0  0  0  0  0  0  0  0  0  0  0  0
   -5.2434    0.0476   -0.0000 C   0  0  0  0  0  0  0  0  0  0  0  0
   -2.6514   -4.4706   -0.0000 O   0  0  0  0  0  0  0  0  0  0  0  0
    1.2603   -2.2115   -0.0000 C   0  0  0  0  0  0  0  0  0  0  0  0
   -0.0357   -4.4587   -0.0000 C   0  0  0  0  0  0  0  0  0  0  0  0
   -5.2553   -2.9487   -0.0000 C   0  0  0  0  0  0  0  0  0  0  0  0
   -6.5513   -0.6896   -0.0000 C   0  0  0  0  0  0  0  0  0  0  0  0
    2.5444   -2.9487   -0.0000 C   0  0  0  0  0  0  0  0  0  0  0  0
    1.2365   -0.7015   -0.0000 C   0  0  0  0  0  0  0  0  0  0  0  0
    1.2484   -5.1958   -0.0000 C   0  0  0  0  0  0  0  0  0  0  0  0
   -6.5632   -2.1877   -0.0000 C   0  0  0  0  0  0  0  0  0  0  0  0
    3.8285   -2.1877   -0.0000 C   0  0  0  0  0  0  0  0  0  0  0  0
    2.5206    0.0594   -0.0000 C   0  0  0  0  0  0  0  0  0  0  0  0
    3.8166   -0.6777   -0.0000 C   0  0  0  0  0  0  0  0  0  0  0  0
  1  2  2  0
  2  3  1  0
  2  4  1  0
  3  5  1  0
  4  6  2  0
  4  7  1  0
  5  8  2  0
  5  9  1  0
  6 10  1  0
  7 11  1  0
  7 12  1  0
  8 13  1  0
  9 14  2  0
 11 15  2  0
 11 16  1  0
 12 17  1  0
 13 18  2  0
 15 19  1  0
 16 20  2  0
 19 21  2  0
  6  8  1  0
 14 18  1  0
 20 21  1  0
M  END
>  <MolRegNo>  (1) 
394229

>  <m>  (1) 
=

>  <Value>  (1) 
528000

>  <Unit>  (1) 
nM

>  <Type>  (1) 
IC50

>  <pValue>  (1) 
0

>  <Ligand Efficiency>  (1) 
0

>  <Binding Efficiency>  (1) 
0

>  <Surface Efficiency>  (1) 
0

>  <Assay Index>  (1) 
259863

>  <Assay Category>  (1) 


>  <Assay Organism>  (1) 
Homo sapiens

>  <Target ID>  (1) 
11365

>  <Target Name>  (1) 
Cytochrome P450 2D6

>  <Target Organism>  (1) 
Homo sapiens

>  <Target Description>  (1) 
Target is a single protein chain

>  <Sequence Accession>  (1) 
P10635

>  <Reference>  (1) 
J Med Chem 49 (8), 2417-2430 (2006)

>  <Pubmed ID>  (1) 
16610785

>  <DOI>  (1) 
10.1021/jm0508538

$$$$
