4wnv_ligand_38
     RDKit          2D

 16 17  0  0  0  0  0  0  0  0999 V2000
    0.0000   -0.0000   -0.0000 O   0  0  0  0  0  0  0  0  0  0  0  0
   -1.3648    0.6236   -0.0000 C   0  0  0  0  0  0  0  0  0  0  0  0
    0.9883    1.1413   -0.0000 C   0  0  0  0  0  0  0  0  0  0  0  0
   -2.6708   -0.1177   -0.0000 C   0  0  0  0  0  0  0  0  0  0  0  0
   -1.2354    2.1178   -0.0000 C   0  0  0  0  0  0  0  0  0  0  0  0
    0.2235    2.4473   -0.0000 N   0  0  0  0  0  0  0  0  0  0  0  0
   -3.9886    0.6353   -0.0000 C   0  0  0  0  0  0  0  0  0  0  0  0
   -2.6943   -1.6001   -0.0000 C   0  0  0  0  0  0  0  0  0  0  0  0
   -5.2945   -0.0941   -0.0000 C   0  0  0  0  0  0  0  0  0  0  0  0
   -4.0003   -2.3296   -0.0000 C   0  0  0  0  0  0  0  0  0  0  0  0
   -5.3063   -1.5648   -0.0000 C   0  0  0  0  0  0  0  0  0  0  0  0
   -6.6123   -2.2943   -0.0000 O   0  0  0  0  0  0  0  0  0  0  0  0
   -7.9183   -1.5413   -0.0000 C   0  0  0  0  0  0  0  0  0  0  0  0
   -9.2243   -2.2708   -0.0000 C   0  0  0  0  0  0  0  0  0  0  0  0
  -10.5303   -1.5178   -0.0000 C   0  0  0  0  0  0  0  0  0  0  0  0
  -11.8363   -2.2472   -0.0000 C   0  0  0  0  0  0  0  0  0  0  0  0
  1  2  1  0
  1  3  1  0
  2  4  1  0
  2  5  2  0
  3  6  2  0
  4  7  2  0
  4  8  1  0
  7  9  1  0
  8 10  2  0
  9 11  2  0
 11 12  1  0
 12 13  1  0
 13 14  1  0
 14 15  1  0
 15 16  1  0
  5  6  1  0
 10 11  1  0
M  END
>  <MolRegNo>  (1) 
251193

>  <m>  (1) 
=

>  <Value>  (1) 
1010

>  <Unit>  (1) 
nM

>  <Type>  (1) 
IC50

>  <pValue>  (1) 
6

>  <Ligand Efficiency>  (1) 
0

>  <Binding Efficiency>  (1) 
0

>  <Surface Efficiency>  (1) 
0

>  <Assay Index>  (1) 
51627

>  <Assay Category>  (1) 


>  <Assay Organism>  (1) 


>  <Target ID>  (1) 
11365

>  <Target Name>  (1) 
Cytochrome P450 2D6

>  <Target Organism>  (1) 
Homo sapiens

>  <Target Description>  (1) 
Target is a single protein chain

>  <Sequence Accession>  (1) 
P10635

>  <Reference>  (1) 
J Med Chem 46 (25), 5416-5427 (2003)

>  <Pubmed ID>  (1) 
14640550

>  <DOI>  (1) 
10.1021/jm020557k

$$$$
