4wnv_ligand_980
     RDKit          2D

 25 27  0  0  0  0  0  0  0  0999 V2000
    0.0000   -0.0000   -0.0000 Cl  0  0  0  0  0  0  0  0  0  0  0  0
    1.2943    0.7718   -0.0000 C   0  0  0  0  0  0  0  0  0  0  0  0
    1.2824    2.2918   -0.0000 C   0  0  0  0  0  0  0  0  0  0  0  0
    2.6005    0.0356   -0.0000 C   0  0  0  0  0  0  0  0  0  0  0  0
    2.5767    3.0517   -0.0000 C   0  0  0  0  0  0  0  0  0  0  0  0
    3.8829    0.8075   -0.0000 C   0  0  0  0  0  0  0  0  0  0  0  0
    3.8711    2.3155   -0.0000 C   0  0  0  0  0  0  0  0  0  0  0  0
    5.1654    3.0874   -0.0000 N   0  0  0  0  0  0  0  0  0  0  0  0
    6.4597    2.3511   -0.0000 C   0  0  0  0  0  0  0  0  0  0  0  0
    6.4478    0.8550   -0.0000 O   0  0  0  0  0  0  0  0  0  0  0  0
    7.7540    3.1230   -0.0000 N   0  0  0  0  0  0  0  0  0  0  0  0
    9.0364    2.3868   -0.0000 C   0  0  0  0  0  0  0  0  0  0  0  0
    7.7421    4.6429   -0.0000 C   0  0  0  0  0  0  0  0  0  0  0  0
   10.3189    3.1467   -0.0000 C   0  0  0  0  0  0  0  0  0  0  0  0
    9.0246    5.4147   -0.0000 C   0  0  0  0  0  0  0  0  0  0  0  0
   11.6132    2.3986   -0.0000 C   0  0  0  0  0  0  0  0  0  0  0  0
   10.3070    4.6666   -0.0000 C   0  0  0  0  0  0  0  0  0  0  0  0
   11.6013    3.9186   -0.0000 C   0  0  0  0  0  0  0  0  0  0  0  0
   11.5894    0.9025   -0.0000 C   0  0  0  0  0  0  0  0  0  0  0  0
   12.8956    3.1586   -0.0000 C   0  0  0  0  0  0  0  0  0  0  0  0
   11.5776    5.4385   -0.0000 C   0  0  0  0  0  0  0  0  0  0  0  0
   12.8837    0.1544   -0.0000 C   0  0  0  0  0  0  0  0  0  0  0  0
   14.1899    2.4224   -0.0000 C   0  0  0  0  0  0  0  0  0  0  0  0
   12.8600    6.2103   -0.0000 O   0  0  0  0  0  0  0  0  0  0  0  0
   14.1781    0.9143   -0.0000 C   0  0  0  0  0  0  0  0  0  0  0  0
  1  2  1  0
  2  3  2  0
  2  4  1  0
  3  5  1  0
  4  6  2  0
  5  7  2  0
  7  8  1  0
  8  9  1  0
  9 10  2  0
  9 11  1  0
 11 12  1  0
 11 13  1  0
 12 14  1  0
 13 15  1  0
 14 16  1  0
 14 17  1  0
 14 18  1  0
 16 19  2  0
 16 20  1  0
 18 21  1  0
 19 22  1  0
 20 23  2  0
 21 24  1  0
 22 25  2  0
  6  7  1  0
 15 17  1  0
 23 25  1  0
M  END
>  <MolRegNo>  (1) 
618006

>  <m>  (1) 
=

>  <Value>  (1) 
10000

>  <Unit>  (1) 
nM

>  <Type>  (1) 
IC50

>  <pValue>  (1) 
5

>  <Ligand Efficiency>  (1) 
0

>  <Binding Efficiency>  (1) 
0

>  <Surface Efficiency>  (1) 
0

>  <Assay Index>  (1) 
466911

>  <Assay Category>  (1) 


>  <Assay Organism>  (1) 


>  <Target ID>  (1) 
11365

>  <Target Name>  (1) 
Cytochrome P450 2D6

>  <Target Organism>  (1) 
Homo sapiens

>  <Target Description>  (1) 
Target is a single protein chain

>  <Sequence Accession>  (1) 
P10635

>  <Reference>  (1) 
Bioorg Med Chem Lett 19 (18), 5314-5320 (2009)

>  <Pubmed ID>  (1) 
19682899

>  <DOI>  (1) 
10.1016/j.bmcl.2009.07.138

$$$$
