4wnv_ligand_688
     RDKit          2D

 24 27  0  0  0  0  0  0  0  0999 V2000
    0.0000   -0.0000   -0.0000 O   0  0  0  0  0  0  0  0  0  0  0  0
    0.0000    1.5083   -0.0000 N   0  0  0  0  0  0  0  0  0  0  0  0
   -1.4370   -0.4394   -0.0000 C   0  0  0  0  0  0  0  0  0  0  0  0
   -1.4370    1.9952   -0.0000 C   0  0  0  0  0  0  0  0  0  0  0  0
   -2.3158    0.7838   -0.0000 N   0  0  0  0  0  0  0  0  0  0  0  0
   -1.9120   -1.8408   -0.0000 C   0  0  0  0  0  0  0  0  0  0  0  0
   -1.9002    3.4322   -0.0000 C   0  0  0  0  0  0  0  0  0  0  0  0
   -1.0332   -3.0521   -0.0000 N   0  0  0  0  0  0  0  0  0  0  0  0
   -3.3609   -2.2921   -0.0000 C   0  0  0  0  0  0  0  0  0  0  0  0
   -0.9026    4.5485   -0.0000 N   0  0  0  0  0  0  0  0  0  0  0  0
   -1.9358   -4.2635   -0.0000 N   0  0  0  0  0  0  0  0  0  0  0  0
   -3.3728   -3.7885   -0.0000 C   0  0  0  0  0  0  0  0  0  0  0  0
   -4.6673   -1.5320   -0.0000 C   0  0  0  0  0  0  0  0  0  0  0  0
   -1.4964   -5.6768   -0.0000 C   0  0  0  0  0  0  0  0  0  0  0  0
   -4.6792   -4.5248   -0.0000 C   0  0  0  0  0  0  0  0  0  0  0  0
   -5.9737   -2.2683   -0.0000 C   0  0  0  0  0  0  0  0  0  0  0  0
   -2.2683   -6.9594   -0.0000 C   0  0  0  0  0  0  0  0  0  0  0  0
   -5.9855   -3.7647   -0.0000 C   0  0  0  0  0  0  0  0  0  0  0  0
   -1.5439   -8.2420   -0.0000 C   0  0  0  0  0  0  0  0  0  0  0  0
   -3.7766   -6.9237   -0.0000 C   0  0  0  0  0  0  0  0  0  0  0  0
   -2.3040   -9.5246   -0.0000 C   0  0  0  0  0  0  0  0  0  0  0  0
   -4.5485   -8.2064   -0.0000 C   0  0  0  0  0  0  0  0  0  0  0  0
   -3.8241   -9.5009   -0.0000 C   0  0  0  0  0  0  0  0  0  0  0  0
   -1.5676  -10.8072   -0.0000 C   0  0  0  0  0  0  0  0  0  0  0  0
  1  2  1  0
  1  3  1  0
  2  4  2  0
  3  5  2  0
  3  6  1  0
  4  7  1  0
  6  8  2  0
  6  9  1  0
  7 10  1  0
  8 11  1  0
  9 12  2  0
  9 13  1  0
 11 14  1  0
 12 15  1  0
 13 16  2  0
 14 17  1  0
 15 18  2  0
 17 19  2  0
 17 20  1  0
 19 21  1  0
 20 22  2  0
 21 23  2  0
 21 24  1  0
  4  5  1  0
 11 12  1  0
 16 18  1  0
 22 23  1  0
M  END
>  <MolRegNo>  (1) 
480441

>  <m>  (1) 
=

>  <Value>  (1) 
3960

>  <Unit>  (1) 
nM

>  <Type>  (1) 
IC50

>  <pValue>  (1) 
5.4

>  <Ligand Efficiency>  (1) 
0

>  <Binding Efficiency>  (1) 
0

>  <Surface Efficiency>  (1) 
0

>  <Assay Index>  (1) 
349782

>  <Assay Category>  (1) 


>  <Assay Organism>  (1) 
Homo sapiens

>  <Target ID>  (1) 
11365

>  <Target Name>  (1) 
Cytochrome P450 2D6

>  <Target Organism>  (1) 
Homo sapiens

>  <Target Description>  (1) 
Target is a single protein chain

>  <Sequence Accession>  (1) 
P10635

>  <Reference>  (1) 
J Med Chem 52 (9), 2694-2707 (2009)

>  <Pubmed ID>  (1) 
19341281

>  <DOI>  (1) 
10.1021/jm801180p

$$$$
