4wnv_ligand_105
     RDKit          2D

 13 14  0  0  0  0  0  0  0  0999 V2000
    0.0000   -0.0000   -0.0000 O   0  0  0  0  0  0  0  0  0  0  0  0
   -1.3890   -0.6107   -0.0000 C   0  0  0  0  0  0  0  0  0  0  0  0
    1.0058   -1.1256   -0.0000 C   0  0  0  0  0  0  0  0  0  0  0  0
   -2.7182    0.1676   -0.0000 C   0  0  0  0  0  0  0  0  0  0  0  0
   -1.2693   -2.0955   -0.0000 C   0  0  0  0  0  0  0  0  0  0  0  0
    0.2275   -2.4308   -0.0000 C   0  0  0  0  0  0  0  0  0  0  0  0
    2.5026   -0.9579   -0.0000 C   0  0  0  0  0  0  0  0  0  0  0  0
   -4.0473   -0.5867   -0.0000 C   0  0  0  0  0  0  0  0  0  0  0  0
   -2.7301    1.7004   -0.0000 C   0  0  0  0  0  0  0  0  0  0  0  0
    3.1971   -1.9279   -0.0000 N   0  0  0  0  0  0  0  0  0  0  0  0
   -5.3765    0.1796   -0.0000 N   0  0  0  0  0  0  0  0  0  0  0  0
   -4.0593    2.4667   -0.0000 C   0  0  0  0  0  0  0  0  0  0  0  0
   -5.3884    1.7123   -0.0000 C   0  0  0  0  0  0  0  0  0  0  0  0
  1  2  1  0
  1  3  1  0
  2  4  1  0
  2  5  2  0
  3  6  2  0
  3  7  1  0
  4  8  2  0
  4  9  1  0
  7 10  1  0
  8 11  1  0
  9 12  2  0
 11 13  2  0
  5  6  1  0
 12 13  1  0
M  END
>  <MolRegNo>  (1) 
299641

>  <m>  (1) 
=

>  <Value>  (1) 
11300

>  <Unit>  (1) 
nM

>  <Type>  (1) 
IC50

>  <pValue>  (1) 
4.95

>  <Ligand Efficiency>  (1) 
0

>  <Binding Efficiency>  (1) 
0

>  <Surface Efficiency>  (1) 
0

>  <Assay Index>  (1) 
238570

>  <Assay Category>  (1) 


>  <Assay Organism>  (1) 
Homo sapiens

>  <Target ID>  (1) 
11365

>  <Target Name>  (1) 
Cytochrome P450 2D6

>  <Target Organism>  (1) 
Homo sapiens

>  <Target Description>  (1) 
Target is a single protein chain

>  <Sequence Accession>  (1) 
P10635

>  <Reference>  (1) 
J Med Chem 48 (1), 224-239 (2005)

>  <Pubmed ID>  (1) 
15634016

>  <DOI>  (1) 
10.1021/jm049696n

$$$$
