4wnv_ligand_928
     RDKit          2D

 28 30  0  0  0  0  0  0  0  0999 V2000
    0.0000   -0.0000   -0.0000 Cl  0  0  0  0  0  0  0  0  0  0  0  0
   -0.0119    1.5128   -0.0000 C   0  0  0  0  0  0  0  0  0  0  0  0
   -1.3222    2.2751   -0.0000 C   0  0  0  0  0  0  0  0  0  0  0  0
    1.2864    2.2751   -0.0000 C   0  0  0  0  0  0  0  0  0  0  0  0
   -2.6324    1.5366   -0.0000 C   0  0  0  0  0  0  0  0  0  0  0  0
   -1.3341    3.7878   -0.0000 C   0  0  0  0  0  0  0  0  0  0  0  0
    1.2745    3.7998   -0.0000 C   0  0  0  0  0  0  0  0  0  0  0  0
   -3.9427    0.7981   -0.0000 N   0  0  0  0  0  0  0  0  0  0  0  0
   -0.0476    4.5502   -0.0000 C   0  0  0  0  0  0  0  0  0  0  0  0
    2.5610    4.5621   -0.0000 N   0  0  0  0  0  0  0  0  0  0  0  0
    3.8474    3.8236   -0.0000 C   0  0  0  0  0  0  0  0  0  0  0  0
    2.5491    6.0748   -0.0000 C   0  0  0  0  0  0  0  0  0  0  0  0
    4.0023    2.3346   -0.0000 C   0  0  0  0  0  0  0  0  0  0  0  0
    5.2172    4.4430   -0.0000 C   0  0  0  0  0  0  0  0  0  0  0  0
    3.8355    6.8372   -0.0000 C   0  0  0  0  0  0  0  0  0  0  0  0
    5.4555    2.0369   -0.0000 N   0  0  0  0  0  0  0  0  0  0  0  0
    6.2178    3.3471   -0.0000 C   0  0  0  0  0  0  0  0  0  0  0  0
    3.8117    8.3380   -0.0000 C   0  0  0  0  0  0  0  0  0  0  0  0
    5.1219    6.0987   -0.0000 C   0  0  0  0  0  0  0  0  0  0  0  0
    6.0510    0.6790   -0.0000 C   0  0  0  0  0  0  0  0  0  0  0  0
    2.4895    9.0884   -0.0000 Cl  0  0  0  0  0  0  0  0  0  0  0  0
    5.0862    9.1123   -0.0000 C   0  0  0  0  0  0  0  0  0  0  0  0
    6.4084    6.8610   -0.0000 C   0  0  0  0  0  0  0  0  0  0  0  0
    5.1577   -0.5241   -0.0000 O   0  0  0  0  0  0  0  0  0  0  0  0
    7.5280    0.5360   -0.0000 C   0  0  0  0  0  0  0  0  0  0  0  0
    6.3845    8.3738   -0.0000 C   0  0  0  0  0  0  0  0  0  0  0  0
    7.6948    6.1225   -0.0000 Cl  0  0  0  0  0  0  0  0  0  0  0  0
    8.1355   -0.8219   -0.0000 C   0  0  0  0  0  0  0  0  0  0  0  0
  1  2  1  0
  2  3  2  0
  2  4  1  0
  3  5  1  0
  3  6  1  0
  4  7  2  0
  5  8  3  0
  6  9  2  0
  7 10  1  0
 11 10  1  1
 10 12  1  0
 11 13  1  0
 11 14  1  0
 12 15  1  0
 13 16  1  0
 14 17  1  0
 15 18  2  0
 15 19  1  0
 16 20  1  0
 18 21  1  0
 18 22  1  0
 19 23  2  0
 20 24  2  0
 20 25  1  0
 22 26  2  0
 23 27  1  0
 25 28  1  0
  7  9  1  0
 16 17  1  0
 23 26  1  0
M  END
>  <MolRegNo>  (1) 
590213

>  <m>  (1) 
=

>  <Value>  (1) 
13000

>  <Unit>  (1) 
nM

>  <Type>  (1) 
IC50

>  <pValue>  (1) 
4.89

>  <Ligand Efficiency>  (1) 
0

>  <Binding Efficiency>  (1) 
0

>  <Surface Efficiency>  (1) 
0

>  <Assay Index>  (1) 
452357

>  <Assay Category>  (1) 


>  <Assay Organism>  (1) 


>  <Target ID>  (1) 
11365

>  <Target Name>  (1) 
Cytochrome P450 2D6

>  <Target Organism>  (1) 
Homo sapiens

>  <Target Description>  (1) 
Target is a single protein chain

>  <Sequence Accession>  (1) 
P10635

>  <Reference>  (1) 
Bioorg Med Chem Lett 20 (1), 371-374 (2010)

>  <Pubmed ID>  (1) 
19926282

>  <DOI>  (1) 
10.1016/j.bmcl.2009.10.092

$$$$
