4wnv_ligand_516
     RDKit          2D

 36 39  0  0  1  0  0  0  0  0999 V2000
    0.0000   -0.0000   -0.0000 F   0  0  0  0  0  0  0  0  0  0  0  0
    1.4937   -0.0000   -0.0000 C   0  0  0  0  0  0  0  0  0  0  0  0
    2.2287   -1.2922   -0.0000 C   0  0  0  0  0  0  0  0  0  0  0  0
    2.2406    1.3040   -0.0000 C   0  0  0  0  0  0  0  0  0  0  0  0
    3.7224   -1.2922   -0.0000 C   0  0  0  0  0  0  0  0  0  0  0  0
    3.7224    1.3159   -0.0000 C   0  0  0  0  0  0  0  0  0  0  0  0
    4.4693    0.0237   -0.0000 C   0  0  0  0  0  0  0  0  0  0  0  0
    5.9630    0.0356   -0.0000 C   0  0  0  0  0  0  0  0  0  0  0  0
    6.7098    1.3514   -0.0000 C   0  0  0  0  0  0  0  0  0  0  0  0
    8.2035    1.3633   -0.0000 C   0  0  0  0  0  0  0  0  0  0  0  0
    5.9392    2.6673   -0.0000 C   0  0  0  0  0  0  0  0  0  0  0  0
    8.9504    2.6673   -0.0000 N   0  0  0  0  0  0  0  0  0  0  0  0
    6.6861    3.9832   -0.0000 C   0  0  0  0  0  0  0  0  0  0  0  0
    8.1917    3.9832   -0.0000 C   0  0  0  0  0  0  0  0  0  0  0  0
   10.4441    2.6673   -0.0000 C   0  0  0  0  0  0  0  0  0  0  0  0
   11.1791    1.3752   -0.0000 C   0  0  0  0  0  0  0  0  0  0  0  0
   12.6728    1.3752   -0.0000 C   0  0  0  0  0  0  0  0  0  0  0  0
   13.4196    2.6910   -0.0000 N   0  0  0  0  0  0  0  0  0  0  0  0
   14.9133    2.6910   -0.0000 C   0  0  0  0  0  0  0  0  0  0  0  0
   15.6483    1.3989   -0.0000 O   0  0  0  0  0  0  0  0  0  0  0  0
   15.6602    4.0069   -0.0000 N   0  0  0  0  0  0  0  0  0  0  0  0
   17.1539    4.0069   -0.0000 C   0  0  0  0  0  0  0  0  0  0  0  0
   17.8770    2.7147   -0.0000 C   0  0  0  0  0  0  0  0  0  0  0  0
   17.8889    5.3228   -0.0000 C   0  0  0  0  0  0  0  0  0  0  0  0
   19.3707    2.7147   -0.0000 C   0  0  0  0  0  0  0  0  0  0  0  0
   19.3826    5.3347   -0.0000 C   0  0  0  0  0  0  0  0  0  0  0  0
   20.1176    1.4226   -0.0000 C   0  0  0  0  0  0  0  0  0  0  0  0
   20.1176    4.0306   -0.0000 C   0  0  0  0  0  0  0  0  0  0  0  0
   20.1294    6.6505   -0.0000 C   0  0  0  0  0  0  0  0  0  0  0  0
   21.5994    1.2685   -0.0000 N   0  0  0  0  0  0  0  0  0  0  0  0
   19.4893    0.0593   -0.0000 N   0  0  0  0  0  0  0  0  0  0  0  0
   21.6231    6.6624   -0.0000 C   0  0  0  0  0  0  0  0  0  0  0  0
   19.3707    7.9664   -0.0000 C   0  0  0  0  0  0  0  0  0  0  0  0
   21.8958   -0.1897   -0.0000 N   0  0  0  0  0  0  0  0  0  0  0  0
   20.5918   -0.9484   -0.0000 N   0  0  0  0  0  0  0  0  0  0  0  0
   18.0074   -0.2371   -0.0000 C   0  0  0  0  0  0  0  0  0  0  0  0
  1  2  1  0
  2  3  2  0
  2  4  1  0
  3  5  1  0
  4  6  2  0
  5  7  2  0
  7  8  1  0
  9  8  1  6
  9 10  1  0
  9 11  1  0
 10 12  1  0
 11 13  1  0
 12 14  1  0
 12 15  1  0
 15 16  1  0
 16 17  1  0
 17 18  1  0
 18 19  1  0
 19 20  2  0
 19 21  1  0
 21 22  1  0
 22 23  2  0
 22 24  1  0
 23 25  1  0
 24 26  2  0
 25 27  1  0
 25 28  2  0
 26 29  1  0
 27 30  2  0
 27 31  1  0
 29 32  1  0
 29 33  1  0
 30 34  1  0
 31 35  1  0
 31 36  1  0
  6  7  1  0
 13 14  1  0
 26 28  1  0
 34 35  2  0
M  END
>  <MolRegNo>  (1) 
437715

>  <m>  (1) 
=

>  <Value>  (1) 
4600

>  <Unit>  (1) 
nM

>  <Type>  (1) 
IC50

>  <pValue>  (1) 
5.34

>  <Ligand Efficiency>  (1) 
0

>  <Binding Efficiency>  (1) 
0

>  <Surface Efficiency>  (1) 
0

>  <Assay Index>  (1) 
314783

>  <Assay Category>  (1) 


>  <Assay Organism>  (1) 


>  <Target ID>  (1) 
11365

>  <Target Name>  (1) 
Cytochrome P450 2D6

>  <Target Organism>  (1) 
Homo sapiens

>  <Target Description>  (1) 
Target is a single protein chain

>  <Sequence Accession>  (1) 
P10635

>  <Reference>  (1) 
Bioorg Med Chem Lett 18 (2), 576-585 (2008)

>  <Pubmed ID>  (1) 
18096386

>  <DOI>  (1) 
10.1016/j.bmcl.2007.11.067

$$$$
