4wnv_ligand_832
     RDKit          2D

 22 24  0  0  0  0  0  0  0  0999 V2000
    0.0000   -0.0000   -0.0000 O   0  0  0  0  0  0  0  0  0  0  0  0
   -0.0118   -1.4916   -0.0000 C   0  0  0  0  0  0  0  0  0  0  0  0
    1.2785   -2.2256   -0.0000 N   0  0  0  0  0  0  0  0  0  0  0  0
   -1.3259   -2.2256   -0.0000 C   0  0  0  0  0  0  0  0  0  0  0  0
    1.2667   -3.7172   -0.0000 C   0  0  0  0  0  0  0  0  0  0  0  0
    2.5689   -1.4679   -0.0000 C   0  0  0  0  0  0  0  0  0  0  0  0
   -2.6399   -1.4679   -0.0000 C   0  0  0  0  0  0  0  0  0  0  0  0
   -1.3377   -3.7172   -0.0000 C   0  0  0  0  0  0  0  0  0  0  0  0
    2.4742   -4.5932   -0.0000 C   0  0  0  0  0  0  0  0  0  0  0  0
    0.0355   -4.5932   -0.0000 C   0  0  0  0  0  0  0  0  0  0  0  0
    3.8593   -2.2019   -0.0000 C   0  0  0  0  0  0  0  0  0  0  0  0
   -3.9540   -2.2019   -0.0000 C   0  0  0  0  0  0  0  0  0  0  0  0
   -2.6518    0.0474   -0.0000 C   0  0  0  0  0  0  0  0  0  0  0  0
   -2.6518   -4.4512   -0.0000 C   0  0  0  0  0  0  0  0  0  0  0  0
    2.0007   -6.0138   -0.0000 N   0  0  0  0  0  0  0  0  0  0  0  0
    0.4854   -6.0138   -0.0000 C   0  0  0  0  0  0  0  0  0  0  0  0
    4.2381   -3.6462   -0.0000 C   0  0  0  0  0  0  0  0  0  0  0  0
    5.3035   -1.7994   -0.0000 C   0  0  0  0  0  0  0  0  0  0  0  0
   -3.9658   -3.6935   -0.0000 C   0  0  0  0  0  0  0  0  0  0  0  0
   -1.3614    0.8050   -0.0000 C   0  0  0  0  0  0  0  0  0  0  0  0
   -3.9658    0.8050   -0.0000 C   0  0  0  0  0  0  0  0  0  0  0  0
    5.6823   -3.2437   -0.0000 C   0  0  0  0  0  0  0  0  0  0  0  0
  1  2  2  0
  2  3  1  0
  2  4  1  0
  5  3  1  6
  3  6  1  0
  4  7  2  0
  4  8  1  0
  5  9  1  0
  5 10  1  0
  6 11  1  0
  7 12  1  0
  7 13  1  0
  8 14  2  0
  9 15  1  0
 10 16  1  0
 11 17  1  0
 11 18  1  0
 12 19  2  0
 13 20  1  0
 13 21  1  0
 17 22  1  0
 14 19  1  0
 15 16  1  0
 18 22  1  0
M  END
>  <MolRegNo>  (1) 
560762

>  <m>  (1) 
=

>  <Value>  (1) 
3170

>  <Unit>  (1) 
nM

>  <Type>  (1) 
IC50

>  <pValue>  (1) 
5.5

>  <Ligand Efficiency>  (1) 
0

>  <Binding Efficiency>  (1) 
0

>  <Surface Efficiency>  (1) 
0

>  <Assay Index>  (1) 
427125

>  <Assay Category>  (1) 


>  <Assay Organism>  (1) 


>  <Target ID>  (1) 
11365

>  <Target Name>  (1) 
Cytochrome P450 2D6

>  <Target Organism>  (1) 
Homo sapiens

>  <Target Description>  (1) 
Target is a single protein chain

>  <Sequence Accession>  (1) 
P10635

>  <Reference>  (1) 
Bioorg Med Chem Lett 19 (16), 4579-4583 (2009)

>  <Pubmed ID>  (1) 
19616432

>  <DOI>  (1) 
10.1016/j.bmcl.2009.06.096

$$$$
