4wnv_ligand_39
     RDKit          2D

 16 17  0  0  0  0  0  0  0  0999 V2000
    0.0000   -0.0000   -0.0000 O   0  0  0  0  0  0  0  0  0  0  0  0
   -1.4746   -0.3067   -0.0000 N   0  0  0  0  0  0  0  0  0  0  0  0
    0.7432   -1.2859   -0.0000 C   0  0  0  0  0  0  0  0  0  0  0  0
   -1.6398   -1.7814   -0.0000 C   0  0  0  0  0  0  0  0  0  0  0  0
   -0.2713   -2.4066   -0.0000 C   0  0  0  0  0  0  0  0  0  0  0  0
   -2.9257   -2.5246   -0.0000 C   0  0  0  0  0  0  0  0  0  0  0  0
   -4.2470   -1.7696   -0.0000 C   0  0  0  0  0  0  0  0  0  0  0  0
   -2.9493   -4.0110   -0.0000 C   0  0  0  0  0  0  0  0  0  0  0  0
   -5.5564   -2.5010   -0.0000 C   0  0  0  0  0  0  0  0  0  0  0  0
   -4.2588   -4.7424   -0.0000 C   0  0  0  0  0  0  0  0  0  0  0  0
   -5.5682   -3.9756   -0.0000 C   0  0  0  0  0  0  0  0  0  0  0  0
   -6.8777   -4.7071   -0.0000 O   0  0  0  0  0  0  0  0  0  0  0  0
   -8.1872   -3.9520   -0.0000 C   0  0  0  0  0  0  0  0  0  0  0  0
   -9.4967   -4.6835   -0.0000 C   0  0  0  0  0  0  0  0  0  0  0  0
  -10.8062   -3.9284   -0.0000 C   0  0  0  0  0  0  0  0  0  0  0  0
  -12.1157   -4.6599   -0.0000 C   0  0  0  0  0  0  0  0  0  0  0  0
  1  2  1  0
  1  3  1  0
  2  4  2  0
  3  5  2  0
  4  6  1  0
  6  7  2  0
  6  8  1  0
  7  9  1  0
  8 10  2  0
  9 11  2  0
 11 12  1  0
 12 13  1  0
 13 14  1  0
 14 15  1  0
 15 16  1  0
  4  5  1  0
 10 11  1  0
M  END
>  <MolRegNo>  (1) 
250611

>  <m>  (1) 
=

>  <Value>  (1) 
85500

>  <Unit>  (1) 
nM

>  <Type>  (1) 
IC50

>  <pValue>  (1) 
4.07

>  <Ligand Efficiency>  (1) 
0

>  <Binding Efficiency>  (1) 
0

>  <Surface Efficiency>  (1) 
0

>  <Assay Index>  (1) 
51627

>  <Assay Category>  (1) 


>  <Assay Organism>  (1) 


>  <Target ID>  (1) 
11365

>  <Target Name>  (1) 
Cytochrome P450 2D6

>  <Target Organism>  (1) 
Homo sapiens

>  <Target Description>  (1) 
Target is a single protein chain

>  <Sequence Accession>  (1) 
P10635

>  <Reference>  (1) 
J Med Chem 46 (25), 5416-5427 (2003)

>  <Pubmed ID>  (1) 
14640550

>  <DOI>  (1) 
10.1021/jm020557k

$$$$
