4wnv_ligand_168
     RDKit          2D

 18 19  0  0  0  0  0  0  0  0999 V2000
    0.0000   -0.0000   -0.0000 O   0  0  0  0  0  0  0  0  0  0  0  0
    1.2929    0.7591   -0.0000 C   0  0  0  0  0  0  0  0  0  0  0  0
    1.2810    2.2773   -0.0000 N   0  0  0  0  0  0  0  0  0  0  0  0
    2.5857    0.0237   -0.0000 C   0  0  0  0  0  0  0  0  0  0  0  0
    2.5739    3.0365   -0.0000 C   0  0  0  0  0  0  0  0  0  0  0  0
    3.8786    0.7828   -0.0000 C   0  0  0  0  0  0  0  0  0  0  0  0
    2.5739   -1.4708   -0.0000 C   0  0  0  0  0  0  0  0  0  0  0  0
    3.8667    2.2892   -0.0000 N   0  0  0  0  0  0  0  0  0  0  0  0
    2.5620    4.5547   -0.0000 N   0  0  0  0  0  0  0  0  0  0  0  0
    5.1715    0.0474   -0.0000 C   0  0  0  0  0  0  0  0  0  0  0  0
    1.2573   -2.2180   -0.0000 C   0  0  0  0  0  0  0  0  0  0  0  0
    6.4643    0.8066   -0.0000 C   0  0  0  0  0  0  0  0  0  0  0  0
    5.1596   -1.4471   -0.0000 C   0  0  0  0  0  0  0  0  0  0  0  0
    1.2454   -3.7126   -0.0000 C   0  0  0  0  0  0  0  0  0  0  0  0
    7.7572    0.0712   -0.0000 C   0  0  0  0  0  0  0  0  0  0  0  0
    6.4525   -2.1943   -0.0000 C   0  0  0  0  0  0  0  0  0  0  0  0
   -0.0712   -4.4598   -0.0000 N   0  0  0  0  0  0  0  0  0  0  0  0
    7.7454   -1.4233   -0.0000 C   0  0  0  0  0  0  0  0  0  0  0  0
  1  2  2  0
  2  3  1  0
  2  4  1  0
  3  5  2  0
  4  6  2  0
  4  7  1  0
  5  8  1  0
  5  9  1  0
  6 10  1  0
  7 11  1  0
 10 12  2  0
 10 13  1  0
 11 14  1  0
 12 15  1  0
 13 16  2  0
 14 17  1  0
 15 18  2  0
  6  8  1  0
 16 18  1  0
M  END
>  <MolRegNo>  (1) 
314314

>  <m>  (1) 
=

>  <Value>  (1) 
234000

>  <Unit>  (1) 
nM

>  <Type>  (1) 
IC50

>  <pValue>  (1) 
0

>  <Ligand Efficiency>  (1) 
0

>  <Binding Efficiency>  (1) 
0

>  <Surface Efficiency>  (1) 
0

>  <Assay Index>  (1) 
237541

>  <Assay Category>  (1) 


>  <Assay Organism>  (1) 


>  <Target ID>  (1) 
11365

>  <Target Name>  (1) 
Cytochrome P450 2D6

>  <Target Organism>  (1) 
Homo sapiens

>  <Target Description>  (1) 
Target is a single protein chain

>  <Sequence Accession>  (1) 
P10635

>  <Reference>  (1) 
J Med Chem 47 (22), 5340-5346 (2004)

>  <Pubmed ID>  (1) 
15481972

>  <DOI>  (1) 
10.1021/jm049934e

$$$$
