4wnv_ligand_499
     RDKit          2D

 35 38  0  0  0  0  0  0  0  0999 V2000
    0.0000   -0.0000   -0.0000 F   0  0  0  0  0  0  0  0  0  0  0  0
    1.3014   -0.7403   -0.0000 C   0  0  0  0  0  0  0  0  0  0  0  0
    2.5909    0.0239   -0.0000 C   0  0  0  0  0  0  0  0  0  0  0  0
    1.3014   -2.2447   -0.0000 C   0  0  0  0  0  0  0  0  0  0  0  0
    3.8804   -0.7164   -0.0000 C   0  0  0  0  0  0  0  0  0  0  0  0
    2.5909   -2.9730   -0.0000 C   0  0  0  0  0  0  0  0  0  0  0  0
    3.8685   -2.2089   -0.0000 C   0  0  0  0  0  0  0  0  0  0  0  0
    5.1699   -2.9491   -0.0000 C   0  0  0  0  0  0  0  0  0  0  0  0
    6.4594   -2.1850   -0.0000 C   0  0  0  0  0  0  0  0  0  0  0  0
    7.7489   -2.9253   -0.0000 C   0  0  0  0  0  0  0  0  0  0  0  0
    6.4475   -0.6686   -0.0000 C   0  0  0  0  0  0  0  0  0  0  0  0
    9.0384   -2.1611   -0.0000 N   0  0  0  0  0  0  0  0  0  0  0  0
    7.7370    0.1075   -0.0000 C   0  0  0  0  0  0  0  0  0  0  0  0
    9.0265   -0.6447   -0.0000 C   0  0  0  0  0  0  0  0  0  0  0  0
   10.3279   -2.9014   -0.0000 C   0  0  0  0  0  0  0  0  0  0  0  0
   11.6294   -2.1372   -0.0000 C   0  0  0  0  0  0  0  0  0  0  0  0
   11.6174   -0.6209   -0.0000 O   0  0  0  0  0  0  0  0  0  0  0  0
   12.9189   -2.8894   -0.0000 C   0  0  0  0  0  0  0  0  0  0  0  0
   12.8950   -4.3819   -0.0000 N   0  0  0  0  0  0  0  0  0  0  0  0
   14.2084   -2.1372   -0.0000 C   0  0  0  0  0  0  0  0  0  0  0  0
   14.1845   -5.1341   -0.0000 C   0  0  0  0  0  0  0  0  0  0  0  0
   14.1606   -6.6266   -0.0000 O   0  0  0  0  0  0  0  0  0  0  0  0
   15.4859   -4.3700   -0.0000 N   0  0  0  0  0  0  0  0  0  0  0  0
   16.7754   -5.1222   -0.0000 C   0  0  0  0  0  0  0  0  0  0  0  0
   18.0649   -4.3580   -0.0000 C   0  0  0  0  0  0  0  0  0  0  0  0
   16.7516   -6.6147   -0.0000 C   0  0  0  0  0  0  0  0  0  0  0  0
   19.3544   -5.0983   -0.0000 C   0  0  0  0  0  0  0  0  0  0  0  0
   18.0410   -7.3669   -0.0000 C   0  0  0  0  0  0  0  0  0  0  0  0
   20.6439   -4.3342   -0.0000 C   0  0  0  0  0  0  0  0  0  0  0  0
   19.3425   -6.6027   -0.0000 C   0  0  0  0  0  0  0  0  0  0  0  0
   22.0051   -4.9431   -0.0000 N   0  0  0  0  0  0  0  0  0  0  0  0
   20.7872   -2.8178   -0.0000 N   0  0  0  0  0  0  0  0  0  0  0  0
   23.0080   -3.8088   -0.0000 N   0  0  0  0  0  0  0  0  0  0  0  0
   22.2558   -2.4954   -0.0000 N   0  0  0  0  0  0  0  0  0  0  0  0
   19.6529   -1.7910   -0.0000 C   0  0  0  0  0  0  0  0  0  0  0  0
  1  2  1  0
  2  3  2  0
  2  4  1  0
  3  5  1  0
  4  6  2  0
  5  7  2  0
  7  8  1  0
  9  8  1  1
  9 10  1  0
  9 11  1  0
 10 12  1  0
 11 13  1  0
 12 14  1  0
 12 15  1  0
 15 16  1  0
 16 17  1  1
 16 18  1  0
 18 19  1  0
 18 20  1  6
 19 21  1  0
 21 22  2  0
 21 23  1  0
 23 24  1  0
 24 25  2  0
 24 26  1  0
 25 27  1  0
 26 28  2  0
 27 29  1  0
 27 30  2  0
 29 31  2  0
 29 32  1  0
 31 33  1  0
 32 34  1  0
 32 35  1  0
  6  7  1  0
 13 14  1  0
 28 30  1  0
 33 34  2  0
M  END
>  <MolRegNo>  (1) 
423446

>  <m>  (1) 
=

>  <Value>  (1) 
2600

>  <Unit>  (1) 
nM

>  <Type>  (1) 
IC50

>  <pValue>  (1) 
5.58

>  <Ligand Efficiency>  (1) 
0

>  <Binding Efficiency>  (1) 
0

>  <Surface Efficiency>  (1) 
0

>  <Assay Index>  (1) 
314783

>  <Assay Category>  (1) 


>  <Assay Organism>  (1) 


>  <Target ID>  (1) 
11365

>  <Target Name>  (1) 
Cytochrome P450 2D6

>  <Target Organism>  (1) 
Homo sapiens

>  <Target Description>  (1) 
Target is a single protein chain

>  <Sequence Accession>  (1) 
P10635

>  <Reference>  (1) 
Bioorg Med Chem Lett 18 (2), 576-585 (2008)

>  <Pubmed ID>  (1) 
18096386

>  <DOI>  (1) 
10.1016/j.bmcl.2007.11.067

$$$$
