4wnv_ligand_161
     RDKit          2D

 20 22  0  0  0  0  0  0  0  0999 V2000
    0.0000   -0.0000   -0.0000 O   0  0  0  0  0  0  0  0  0  0  0  0
   -1.3114   -0.7443   -0.0000 C   0  0  0  0  0  0  0  0  0  0  0  0
   -1.3232   -2.2330   -0.0000 N   0  0  0  0  0  0  0  0  0  0  0  0
   -2.6229    0.0236   -0.0000 C   0  0  0  0  0  0  0  0  0  0  0  0
   -2.6347   -2.9655   -0.0000 C   0  0  0  0  0  0  0  0  0  0  0  0
   -0.0354   -2.9655   -0.0000 C   0  0  0  0  0  0  0  0  0  0  0  0
   -1.6659    1.1815   -0.0000 C   0  0  0  0  0  0  0  0  0  0  0  0
   -3.1427   -1.3705   -0.0000 C   0  0  0  0  0  0  0  0  0  0  0  0
   -3.6035    1.1815   -0.0000 C   0  0  0  0  0  0  0  0  0  0  0  0
   -2.6465   -4.4541   -0.0000 C   0  0  0  0  0  0  0  0  0  0  0  0
   -0.0473   -4.4541   -0.0000 C   0  0  0  0  0  0  0  0  0  0  0  0
   -2.1857    2.5992   -0.0000 C   0  0  0  0  0  0  0  0  0  0  0  0
   -0.2009    0.9334   -0.0000 C   0  0  0  0  0  0  0  0  0  0  0  0
   -4.6314   -1.6186   -0.0000 C   0  0  0  0  0  0  0  0  0  0  0  0
   -5.0921    0.9334   -0.0000 C   0  0  0  0  0  0  0  0  0  0  0  0
   -1.3587   -5.1985   -0.0000 O   0  0  0  0  0  0  0  0  0  0  0  0
   -1.2287    3.7571   -0.0000 C   0  0  0  0  0  0  0  0  0  0  0  0
    0.7561    2.0912   -0.0000 C   0  0  0  0  0  0  0  0  0  0  0  0
   -5.6120   -0.4608   -0.0000 N   0  0  0  0  0  0  0  0  0  0  0  0
    0.2363    3.5090   -0.0000 C   0  0  0  0  0  0  0  0  0  0  0  0
  1  2  2  0
  2  3  1  0
  2  4  1  0
  3  5  1  0
  3  6  1  0
  4  7  1  0
  4  8  1  0
  4  9  1  0
  5 10  1  0
  6 11  1  0
  7 12  2  0
  7 13  1  0
  8 14  1  0
  9 15  1  0
 10 16  1  0
 12 17  1  0
 13 18  2  0
 14 19  1  0
 17 20  2  0
 11 16  1  0
 15 19  1  0
 18 20  1  0
M  END
>  <MolRegNo>  (1) 
314209

>  <m>  (1) 
=

>  <Value>  (1) 
554000

>  <Unit>  (1) 
nM

>  <Type>  (1) 
IC50

>  <pValue>  (1) 
0

>  <Ligand Efficiency>  (1) 
0

>  <Binding Efficiency>  (1) 
0

>  <Surface Efficiency>  (1) 
0

>  <Assay Index>  (1) 
237541

>  <Assay Category>  (1) 


>  <Assay Organism>  (1) 


>  <Target ID>  (1) 
11365

>  <Target Name>  (1) 
Cytochrome P450 2D6

>  <Target Organism>  (1) 
Homo sapiens

>  <Target Description>  (1) 
Target is a single protein chain

>  <Sequence Accession>  (1) 
P10635

>  <Reference>  (1) 
J Med Chem 47 (22), 5340-5346 (2004)

>  <Pubmed ID>  (1) 
15481972

>  <DOI>  (1) 
10.1021/jm049934e

$$$$
