4wnv_ligand_1094
     RDKit          2D

 20 22  0  0  0  0  0  0  0  0999 V2000
    0.0000   -0.0000   -0.0000 O   0  0  0  0  0  0  0  0  0  0  0  0
   -0.3921   -1.4377   -0.0000 C   0  0  0  0  0  0  0  0  0  0  0  0
    0.6654   -2.4832   -0.0000 C   0  0  0  0  0  0  0  0  0  0  0  0
   -1.8535   -1.8297   -0.0000 C   0  0  0  0  0  0  0  0  0  0  0  0
    2.0911   -2.0674   -0.0000 C   0  0  0  0  0  0  0  0  0  0  0  0
    0.2733   -3.9209   -0.0000 C   0  0  0  0  0  0  0  0  0  0  0  0
   -1.7822   -3.3149   -0.0000 N   0  0  0  0  0  0  0  0  0  0  0  0
   -3.3268   -1.4377   -0.0000 C   0  0  0  0  0  0  0  0  0  0  0  0
   -1.8773   -0.3089   -0.0000 C   0  0  0  0  0  0  0  0  0  0  0  0
    3.1486   -3.1011   -0.0000 C   0  0  0  0  0  0  0  0  0  0  0  0
    1.3307   -4.9665   -0.0000 C   0  0  0  0  0  0  0  0  0  0  0  0
   -3.1961   -3.8496   -0.0000 C   0  0  0  0  0  0  0  0  0  0  0  0
   -4.1466   -2.6971   -0.0000 C   0  0  0  0  0  0  0  0  0  0  0  0
   -3.1961    0.4396   -0.0000 C   0  0  0  0  0  0  0  0  0  0  0  0
    2.7684   -4.5506   -0.0000 C   0  0  0  0  0  0  0  0  0  0  0  0
    4.6457   -2.9822   -0.0000 C   0  0  0  0  0  0  0  0  0  0  0  0
   -3.2199    1.9486   -0.0000 C   0  0  0  0  0  0  0  0  0  0  0  0
   -4.5031   -0.3089   -0.0000 C   0  0  0  0  0  0  0  0  0  0  0  0
    4.0397   -5.3348   -0.0000 N   0  0  0  0  0  0  0  0  0  0  0  0
    5.2041   -4.3605   -0.0000 N   0  0  0  0  0  0  0  0  0  0  0  0
  1  2  2  0
  2  3  1  0
  2  4  1  0
  3  5  2  0
  3  6  1  0
  4  7  1  0
  4  8  1  0
  4  9  1  0
  5 10  1  0
  6 11  2  0
  7 12  1  0
  8 13  1  0
  9 14  1  0
 10 15  2  0
 10 16  1  0
 14 17  1  0
 14 18  1  0
 15 19  1  0
 16 20  2  0
 11 15  1  0
 12 13  1  0
 19 20  1  0
M  END
>  <MolRegNo>  (1) 
690546

>  <m>  (1) 
=

>  <Value>  (1) 
6000

>  <Unit>  (1) 
nM

>  <Type>  (1) 
IC50

>  <pValue>  (1) 
5.22

>  <Ligand Efficiency>  (1) 
0

>  <Binding Efficiency>  (1) 
0

>  <Surface Efficiency>  (1) 
0

>  <Assay Index>  (1) 
497257

>  <Assay Category>  (1) 


>  <Assay Organism>  (1) 


>  <Target ID>  (1) 
11365

>  <Target Name>  (1) 
Cytochrome P450 2D6

>  <Target Organism>  (1) 
Homo sapiens

>  <Target Description>  (1) 
Target is a single protein chain

>  <Sequence Accession>  (1) 
P10635

>  <Reference>  (1) 
Bioorg Med Chem Lett 20 (18), 5559-5566 (2010)

>  <Pubmed ID>  (1) 
20691589

>  <DOI>  (1) 
10.1016/j.bmcl.2010.07.020

$$$$
