4wnv_ligand_882
     RDKit          2D

 36 37  0  0  0  0  0  0  0  0999 V2000
    0.0000   -0.0000   -0.0000 Cl  0  0  0  0  0  0  0  0  0  0  0  0
  -13.7536    8.4885   -0.0000 O   0  0  0  0  0  0  0  0  0  0  0  0
  -14.8549    7.8841   -0.0000 C   0  0  0  0  0  0  0  0  0  0  0  0
  -16.2115    8.6766   -0.0000 O   0  0  0  0  0  0  0  0  0  0  0  0
  -14.8684    6.3395   -0.0000 C   0  0  0  0  0  0  0  0  0  0  0  0
  -16.2249   10.2480   -0.0000 C   0  0  0  0  0  0  0  0  0  0  0  0
  -13.5387    5.5740   -0.0000 C   0  0  0  0  0  0  0  0  0  0  0  0
  -17.3128   10.8927   -0.0000 C   0  0  0  0  0  0  0  0  0  0  0  0
  -13.5521    4.0294   -0.0000 C   0  0  0  0  0  0  0  0  0  0  0  0
  -14.9221    3.2638   -0.0000 C   0  0  0  0  0  0  0  0  0  0  0  0
  -12.2224    3.2638   -0.0000 C   0  0  0  0  0  0  0  0  0  0  0  0
  -14.9355    1.7192   -0.0000 C   0  0  0  0  0  0  0  0  0  0  0  0
  -12.2358    1.7192   -0.0000 C   0  0  0  0  0  0  0  0  0  0  0  0
  -16.3055    0.9536   -0.0000 C   0  0  0  0  0  0  0  0  0  0  0  0
  -13.6058    0.9536   -0.0000 C   0  0  0  0  0  0  0  0  0  0  0  0
  -17.4069    0.3492   -0.0000 N   0  0  0  0  0  0  0  0  0  0  0  0
  -13.6193   -0.5910   -0.0000 O   0  0  0  0  0  0  0  0  0  0  0  0
  -12.2896   -1.3566   -0.0000 C   0  0  0  0  0  0  0  0  0  0  0  0
  -12.3030   -2.9011   -0.0000 C   0  0  0  0  0  0  0  0  0  0  0  0
  -13.4044   -3.5055   -0.0000 O   0  0  0  0  0  0  0  0  0  0  0  0
  -10.9733   -3.6667   -0.0000 C   0  0  0  0  0  0  0  0  0  0  0  0
  -10.9867   -5.2113   -0.0000 N   0  0  0  0  0  0  0  0  0  0  0  0
   -9.6570   -5.9769   -0.0000 C   0  0  0  0  0  0  0  0  0  0  0  0
   -9.6705   -7.5215   -0.0000 C   0  0  0  0  0  0  0  0  0  0  0  0
   -9.6705   -4.7144   -0.0000 C   0  0  0  0  0  0  0  0  0  0  0  0
   -8.5825   -5.3456   -0.0000 C   0  0  0  0  0  0  0  0  0  0  0  0
   -8.3408   -8.2871   -0.0000 C   0  0  0  0  0  0  0  0  0  0  0  0
   -6.9842   -7.4946   -0.0000 C   0  0  0  0  0  0  0  0  0  0  0  0
   -8.3542   -9.8316   -0.0000 C   0  0  0  0  0  0  0  0  0  0  0  0
   -5.6545   -8.2602   -0.0000 C   0  0  0  0  0  0  0  0  0  0  0  0
   -6.9977  -10.5972   -0.0000 C   0  0  0  0  0  0  0  0  0  0  0  0
   -5.6680   -9.8048   -0.0000 C   0  0  0  0  0  0  0  0  0  0  0  0
   -4.3249   -7.4678   -0.0000 C   0  0  0  0  0  0  0  0  0  0  0  0
   -4.3383  -10.5704   -0.0000 C   0  0  0  0  0  0  0  0  0  0  0  0
   -2.9952   -8.2333   -0.0000 C   0  0  0  0  0  0  0  0  0  0  0  0
   -3.0086   -9.7779   -0.0000 C   0  0  0  0  0  0  0  0  0  0  0  0
  2  3  2  0
  3  4  1  0
  3  5  1  0
  4  6  1  0
  5  7  1  0
  6  8  1  0
  7  9  1  0
  9 10  2  0
  9 11  1  0
 10 12  1  0
 11 13  2  0
 12 14  1  0
 12 15  2  0
 14 16  3  0
 15 17  1  0
 17 18  1  0
 18 19  1  0
 19 20  1  6
 19 21  1  0
 21 22  1  0
 22 23  1  0
 23 24  1  0
 23 25  1  0
 23 26  1  0
 24 27  1  0
 27 28  2  0
 27 29  1  0
 28 30  1  0
 29 31  2  0
 30 32  2  0
 30 33  1  0
 32 34  1  0
 33 35  2  0
 34 36  2  0
 13 15  1  0
 31 32  1  0
 35 36  1  0
M  END
>  <MolRegNo>  (1) 
677960

>  <m>  (1) 
=

>  <Value>  (1) 
3

>  <Unit>  (1) 
nM

>  <Type>  (1) 
IC50

>  <pValue>  (1) 
8.52

>  <Ligand Efficiency>  (1) 
0

>  <Binding Efficiency>  (1) 
0

>  <Surface Efficiency>  (1) 
0

>  <Assay Index>  (1) 
436972

>  <Assay Category>  (1) 


>  <Assay Organism>  (1) 


>  <Target ID>  (1) 
11365

>  <Target Name>  (1) 
Cytochrome P450 2D6

>  <Target Organism>  (1) 
Homo sapiens

>  <Target Description>  (1) 
Target is a single protein chain

>  <Sequence Accession>  (1) 
P10635

>  <Reference>  (1) 
J Med Chem 52 (21), 6599-6605 (2009)

>  <Pubmed ID>  (1) 
19821575

>  <DOI>  (1) 
10.1021/jm900563e

$$$$
