4wnv_ligand_681
     RDKit          2D

 23 26  0  0  0  0  0  0  0  0999 V2000
    0.0000   -0.0000   -0.0000 O   0  0  0  0  0  0  0  0  0  0  0  0
    0.0000    1.5074   -0.0000 N   0  0  0  0  0  0  0  0  0  0  0  0
   -1.4362   -0.4392   -0.0000 C   0  0  0  0  0  0  0  0  0  0  0  0
   -1.4362    1.9941   -0.0000 C   0  0  0  0  0  0  0  0  0  0  0  0
   -2.3146    0.7834   -0.0000 N   0  0  0  0  0  0  0  0  0  0  0  0
   -1.9110   -1.8398   -0.0000 C   0  0  0  0  0  0  0  0  0  0  0  0
   -1.8991    3.4303   -0.0000 C   0  0  0  0  0  0  0  0  0  0  0  0
   -1.0327   -3.0505   -0.0000 N   0  0  0  0  0  0  0  0  0  0  0  0
   -3.3591   -2.2908   -0.0000 C   0  0  0  0  0  0  0  0  0  0  0  0
   -0.9021    4.5461   -0.0000 N   0  0  0  0  0  0  0  0  0  0  0  0
   -1.9348   -4.2612   -0.0000 N   0  0  0  0  0  0  0  0  0  0  0  0
   -3.3710   -3.7864   -0.0000 C   0  0  0  0  0  0  0  0  0  0  0  0
   -4.6648   -1.5312   -0.0000 C   0  0  0  0  0  0  0  0  0  0  0  0
   -1.4956   -5.6737   -0.0000 C   0  0  0  0  0  0  0  0  0  0  0  0
   -4.6766   -4.5223   -0.0000 C   0  0  0  0  0  0  0  0  0  0  0  0
   -5.9704   -2.2671   -0.0000 C   0  0  0  0  0  0  0  0  0  0  0  0
   -2.2671   -6.9556   -0.0000 C   0  0  0  0  0  0  0  0  0  0  0  0
   -5.9823   -3.7627   -0.0000 C   0  0  0  0  0  0  0  0  0  0  0  0
   -3.7746   -6.9200   -0.0000 C   0  0  0  0  0  0  0  0  0  0  0  0
   -1.5431   -8.2375   -0.0000 C   0  0  0  0  0  0  0  0  0  0  0  0
   -4.5461   -8.2019   -0.0000 C   0  0  0  0  0  0  0  0  0  0  0  0
   -2.3027   -9.5195   -0.0000 C   0  0  0  0  0  0  0  0  0  0  0  0
   -3.8220   -9.4957   -0.0000 C   0  0  0  0  0  0  0  0  0  0  0  0
  1  2  1  0
  1  3  1  0
  2  4  2  0
  3  5  2  0
  3  6  1  0
  4  7  1  0
  6  8  2  0
  6  9  1  0
  7 10  1  0
  8 11  1  0
  9 12  2  0
  9 13  1  0
 11 14  1  0
 12 15  1  0
 13 16  2  0
 14 17  1  0
 15 18  2  0
 17 19  2  0
 17 20  1  0
 19 21  1  0
 20 22  2  0
 21 23  2  0
  4  5  1  0
 11 12  1  0
 16 18  1  0
 22 23  1  0
M  END
>  <MolRegNo>  (1) 
480438

>  <m>  (1) 
=

>  <Value>  (1) 
90

>  <Unit>  (1) 
nM

>  <Type>  (1) 
IC50

>  <pValue>  (1) 
7.05

>  <Ligand Efficiency>  (1) 
0

>  <Binding Efficiency>  (1) 
0

>  <Surface Efficiency>  (1) 
0

>  <Assay Index>  (1) 
349782

>  <Assay Category>  (1) 


>  <Assay Organism>  (1) 
Homo sapiens

>  <Target ID>  (1) 
11365

>  <Target Name>  (1) 
Cytochrome P450 2D6

>  <Target Organism>  (1) 
Homo sapiens

>  <Target Description>  (1) 
Target is a single protein chain

>  <Sequence Accession>  (1) 
P10635

>  <Reference>  (1) 
J Med Chem 52 (9), 2694-2707 (2009)

>  <Pubmed ID>  (1) 
19341281

>  <DOI>  (1) 
10.1021/jm801180p

$$$$
