4wnv_ligand_793
     RDKit          2D

 32 36  0  0  0  0  0  0  0  0999 V2000
    0.0000   -0.0000   -0.0000 O   0  0  0  0  0  0  0  0  0  0  0  0
   -1.0510    1.0853   -0.0000 C   0  0  0  0  0  0  0  0  0  0  0  0
   -2.5133    0.7426   -0.0000 N   0  0  0  0  0  0  0  0  0  0  0  0
   -0.6512    2.5362   -0.0000 C   0  0  0  0  0  0  0  0  0  0  0  0
   -2.9360   -0.6855   -0.0000 C   0  0  0  0  0  0  0  0  0  0  0  0
   -3.5644    1.8279   -0.0000 C   0  0  0  0  0  0  0  0  0  0  0  0
    0.7883    2.9018   -0.0000 C   0  0  0  0  0  0  0  0  0  0  0  0
   -1.7022    3.6215   -0.0000 C   0  0  0  0  0  0  0  0  0  0  0  0
   -4.3983   -1.0282   -0.0000 C   0  0  0  0  0  0  0  0  0  0  0  0
    1.1881    4.3526   -0.0000 C   0  0  0  0  0  0  0  0  0  0  0  0
   -1.3024    5.0724   -0.0000 C   0  0  0  0  0  0  0  0  0  0  0  0
   -4.8210   -2.4562   -0.0000 C   0  0  0  0  0  0  0  0  0  0  0  0
   -5.4494    0.0571   -0.0000 C   0  0  0  0  0  0  0  0  0  0  0  0
    0.1371    5.4379   -0.0000 C   0  0  0  0  0  0  0  0  0  0  0  0
   -6.2833   -2.7989   -0.0000 C   0  0  0  0  0  0  0  0  0  0  0  0
   -6.9117   -0.2856   -0.0000 C   0  0  0  0  0  0  0  0  0  0  0  0
    0.5369    6.8888   -0.0000 C   0  0  0  0  0  0  0  0  0  0  0  0
   -7.3343   -1.7136   -0.0000 C   0  0  0  0  0  0  0  0  0  0  0  0
   -0.5141    7.9741   -0.0000 C   0  0  0  0  0  0  0  0  0  0  0  0
    1.9764    7.2544   -0.0000 C   0  0  0  0  0  0  0  0  0  0  0  0
   -0.1142    9.4250   -0.0000 C   0  0  0  0  0  0  0  0  0  0  0  0
   -1.9764    7.6314   -0.0000 C   0  0  0  0  0  0  0  0  0  0  0  0
    2.3762    8.7053   -0.0000 C   0  0  0  0  0  0  0  0  0  0  0  0
    1.3252    9.7906   -0.0000 O   0  0  0  0  0  0  0  0  0  0  0  0
   -1.1653   10.5103   -0.0000 C   0  0  0  0  0  0  0  0  0  0  0  0
   -3.0274    8.7167   -0.0000 C   0  0  0  0  0  0  0  0  0  0  0  0
    2.7761   10.1561   -0.0000 C   0  0  0  0  0  0  0  0  0  0  0  0
    3.4044    7.6428   -0.0000 C   0  0  0  0  0  0  0  0  0  0  0  0
   -2.6276   10.1676   -0.0000 C   0  0  0  0  0  0  0  0  0  0  0  0
    4.2155   10.5217   -0.0000 C   0  0  0  0  0  0  0  0  0  0  0  0
    4.8439    8.0084   -0.0000 C   0  0  0  0  0  0  0  0  0  0  0  0
    5.2437    9.4593   -0.0000 N   0  0  0  0  0  0  0  0  0  0  0  0
  1  2  2  0
  2  3  1  0
  2  4  1  0
  3  5  1  0
  3  6  1  0
  4  7  2  0
  4  8  1  0
  5  9  1  0
  7 10  1  0
  8 11  2  0
  9 12  2  0
  9 13  1  0
 10 14  2  0
 12 15  1  0
 13 16  2  0
 14 17  1  0
 15 18  2  0
 17 19  1  0
 17 20  2  0
 19 21  2  0
 19 22  1  0
 20 23  1  0
 21 24  1  0
 21 25  1  0
 22 26  2  0
 23 27  1  0
 23 28  1  0
 25 29  2  0
 27 30  1  0
 28 31  1  0
 30 32  1  0
 11 14  1  0
 16 18  1  0
 23 24  1  0
 26 29  1  0
 31 32  1  0
M  END
>  <MolRegNo>  (1) 
564426

>  <m>  (1) 
=

>  <Value>  (1) 
1000

>  <Unit>  (1) 
nM

>  <Type>  (1) 
IC50

>  <pValue>  (1) 
6

>  <Ligand Efficiency>  (1) 
0

>  <Binding Efficiency>  (1) 
0

>  <Surface Efficiency>  (1) 
0

>  <Assay Index>  (1) 
428577

>  <Assay Category>  (1) 


>  <Assay Organism>  (1) 
Homo sapiens

>  <Target ID>  (1) 
11365

>  <Target Name>  (1) 
Cytochrome P450 2D6

>  <Target Organism>  (1) 
Homo sapiens

>  <Target Description>  (1) 
Target is a single protein chain

>  <Sequence Accession>  (1) 
P10635

>  <Reference>  (1) 
J Med Chem 52 (18), 5685-5702 (2009)

>  <Pubmed ID>  (1) 
19694468

>  <DOI>  (1) 
10.1021/jm900773n

$$$$
