4wnv_ligand_40
     RDKit          2D

 17 18  0  0  0  0  0  0  0  0999 V2000
    0.0000   -0.0000   -0.0000 O   0  0  0  0  0  0  0  0  0  0  0  0
    1.2889    0.7568   -0.0000 C   0  0  0  0  0  0  0  0  0  0  0  0
   -1.3126    0.7568   -0.0000 C   0  0  0  0  0  0  0  0  0  0  0  0
    2.5779    0.0118   -0.0000 C   0  0  0  0  0  0  0  0  0  0  0  0
    1.2771    2.2586   -0.0000 C   0  0  0  0  0  0  0  0  0  0  0  0
   -2.6252    0.0237   -0.0000 C   0  0  0  0  0  0  0  0  0  0  0  0
    3.8668    0.7686   -0.0000 C   0  0  0  0  0  0  0  0  0  0  0  0
    2.5660    3.0154   -0.0000 C   0  0  0  0  0  0  0  0  0  0  0  0
   -3.9377    0.7805   -0.0000 C   0  0  0  0  0  0  0  0  0  0  0  0
    3.8550    2.2822   -0.0000 C   0  0  0  0  0  0  0  0  0  0  0  0
   -5.2503    0.0473   -0.0000 C   0  0  0  0  0  0  0  0  0  0  0  0
    5.1557    3.0509   -0.0000 C   0  0  0  0  0  0  0  0  0  0  0  0
    5.1321    4.5526   -0.0000 N   0  0  0  0  0  0  0  0  0  0  0  0
    6.4446    2.3059   -0.0000 C   0  0  0  0  0  0  0  0  0  0  0  0
    6.4328    5.3094   -0.0000 C   0  0  0  0  0  0  0  0  0  0  0  0
    7.7336    3.0627   -0.0000 C   0  0  0  0  0  0  0  0  0  0  0  0
    7.7217    4.5645   -0.0000 N   0  0  0  0  0  0  0  0  0  0  0  0
  1  2  1  0
  1  3  1  0
  2  4  2  0
  2  5  1  0
  3  6  1  0
  4  7  1  0
  5  8  2  0
  6  9  1  0
  7 10  2  0
  9 11  1  0
 10 12  1  0
 12 13  2  0
 12 14  1  0
 13 15  1  0
 14 16  2  0
 15 17  2  0
  8 10  1  0
 16 17  1  0
M  END
>  <MolRegNo>  (1) 
251956

>  <m>  (1) 
=

>  <Value>  (1) 
500

>  <Unit>  (1) 
nM

>  <Type>  (1) 
IC50

>  <pValue>  (1) 
6.3

>  <Ligand Efficiency>  (1) 
0

>  <Binding Efficiency>  (1) 
0

>  <Surface Efficiency>  (1) 
0

>  <Assay Index>  (1) 
51627

>  <Assay Category>  (1) 


>  <Assay Organism>  (1) 


>  <Target ID>  (1) 
11365

>  <Target Name>  (1) 
Cytochrome P450 2D6

>  <Target Organism>  (1) 
Homo sapiens

>  <Target Description>  (1) 
Target is a single protein chain

>  <Sequence Accession>  (1) 
P10635

>  <Reference>  (1) 
J Med Chem 46 (25), 5416-5427 (2003)

>  <Pubmed ID>  (1) 
14640550

>  <DOI>  (1) 
10.1021/jm020557k

$$$$
