4wnv_ligand_1095
     RDKit          2D

 22 24  0  0  0  0  0  0  0  0999 V2000
    0.0000   -0.0000   -0.0000 O   0  0  0  0  0  0  0  0  0  0  0  0
   -0.3923   -1.4383   -0.0000 C   0  0  0  0  0  0  0  0  0  0  0  0
    0.6656   -2.4843   -0.0000 C   0  0  0  0  0  0  0  0  0  0  0  0
   -1.8543   -1.8305   -0.0000 C   0  0  0  0  0  0  0  0  0  0  0  0
    2.0920   -2.0682   -0.0000 C   0  0  0  0  0  0  0  0  0  0  0  0
    0.2734   -3.9225   -0.0000 C   0  0  0  0  0  0  0  0  0  0  0  0
   -1.7830   -3.3163   -0.0000 N   0  0  0  0  0  0  0  0  0  0  0  0
   -3.3282   -1.4383   -0.0000 C   0  0  0  0  0  0  0  0  0  0  0  0
   -1.8781   -0.3090   -0.0000 C   0  0  0  0  0  0  0  0  0  0  0  0
    3.1499   -3.1024   -0.0000 C   0  0  0  0  0  0  0  0  0  0  0  0
    1.3313   -4.9685   -0.0000 C   0  0  0  0  0  0  0  0  0  0  0  0
   -3.1974   -3.8512   -0.0000 C   0  0  0  0  0  0  0  0  0  0  0  0
   -4.1484   -2.6982   -0.0000 C   0  0  0  0  0  0  0  0  0  0  0  0
   -3.1974    0.4398   -0.0000 C   0  0  0  0  0  0  0  0  0  0  0  0
    2.7695   -4.5525   -0.0000 C   0  0  0  0  0  0  0  0  0  0  0  0
    4.6357   -2.9954   -0.0000 C   0  0  0  0  0  0  0  0  0  0  0  0
   -3.2212    1.9494   -0.0000 C   0  0  0  0  0  0  0  0  0  0  0  0
    4.0295   -5.3370   -0.0000 N   0  0  0  0  0  0  0  0  0  0  0  0
    5.1825   -4.3742   -0.0000 N   0  0  0  0  0  0  0  0  0  0  0  0
   -1.9375    2.7220   -0.0000 C   0  0  0  0  0  0  0  0  0  0  0  0
   -4.5406    2.6982   -0.0000 C   0  0  0  0  0  0  0  0  0  0  0  0
   -3.2450    3.4708   -0.0000 C   0  0  0  0  0  0  0  0  0  0  0  0
  1  2  2  0
  2  3  1  0
  2  4  1  0
  3  5  2  0
  3  6  1  0
  4  7  1  0
  4  8  1  0
  4  9  1  0
  5 10  1  0
  6 11  2  0
  7 12  1  0
  8 13  1  0
  9 14  1  0
 10 15  2  0
 10 16  1  0
 14 17  1  0
 15 18  1  0
 16 19  2  0
 17 20  1  0
 17 21  1  0
 17 22  1  0
 11 15  1  0
 12 13  1  0
 18 19  1  0
M  END
>  <MolRegNo>  (1) 
690547

>  <m>  (1) 
=

>  <Value>  (1) 
8000

>  <Unit>  (1) 
nM

>  <Type>  (1) 
IC50

>  <pValue>  (1) 
5.1

>  <Ligand Efficiency>  (1) 
0

>  <Binding Efficiency>  (1) 
0

>  <Surface Efficiency>  (1) 
0

>  <Assay Index>  (1) 
497257

>  <Assay Category>  (1) 


>  <Assay Organism>  (1) 


>  <Target ID>  (1) 
11365

>  <Target Name>  (1) 
Cytochrome P450 2D6

>  <Target Organism>  (1) 
Homo sapiens

>  <Target Description>  (1) 
Target is a single protein chain

>  <Sequence Accession>  (1) 
P10635

>  <Reference>  (1) 
Bioorg Med Chem Lett 20 (18), 5559-5566 (2010)

>  <Pubmed ID>  (1) 
20691589

>  <DOI>  (1) 
10.1016/j.bmcl.2010.07.020

$$$$
