4wnv_ligand_760
     RDKit          2D

 27 30  0  0  0  0  0  0  0  0999 V2000
    0.0000   -0.0000   -0.0000 N   0  0  0  0  0  0  0  0  0  0  0  0
   -0.0119   -1.4923   -0.0000 C   0  0  0  0  0  0  0  0  0  0  0  0
   -1.3132    0.7641   -0.0000 C   0  0  0  0  0  0  0  0  0  0  0  0
    1.2774   -2.2325   -0.0000 C   0  0  0  0  0  0  0  0  0  0  0  0
   -1.3252   -2.2325   -0.0000 C   0  0  0  0  0  0  0  0  0  0  0  0
   -2.6265    0.0239   -0.0000 C   0  0  0  0  0  0  0  0  0  0  0  0
    2.5549   -1.4684   -0.0000 C   0  0  0  0  0  0  0  0  0  0  0  0
    1.2655   -3.7248   -0.0000 C   0  0  0  0  0  0  0  0  0  0  0  0
   -2.6384   -1.4804   -0.0000 C   0  0  0  0  0  0  0  0  0  0  0  0
    3.8562   -2.1967   -0.0000 N   0  0  0  0  0  0  0  0  0  0  0  0
    2.5549   -4.4650   -0.0000 C   0  0  0  0  0  0  0  0  0  0  0  0
    3.8442   -3.7010   -0.0000 C   0  0  0  0  0  0  0  0  0  0  0  0
    5.2888   -1.7192   -0.0000 C   0  0  0  0  0  0  0  0  0  0  0  0
    2.5429   -5.9573   -0.0000 N   0  0  0  0  0  0  0  0  0  0  0  0
    5.2769   -4.1546   -0.0000 N   0  0  0  0  0  0  0  0  0  0  0  0
    6.1722   -2.9369   -0.0000 C   0  0  0  0  0  0  0  0  0  0  0  0
    5.7425   -0.2746   -0.0000 C   0  0  0  0  0  0  0  0  0  0  0  0
    1.2297   -6.6975   -0.0000 C   0  0  0  0  0  0  0  0  0  0  0  0
    7.6646   -2.9250   -0.0000 C   0  0  0  0  0  0  0  0  0  0  0  0
    1.2177   -8.1899   -0.0000 C   0  0  0  0  0  0  0  0  0  0  0  0
   -0.0955   -8.9181   -0.0000 C   0  0  0  0  0  0  0  0  0  0  0  0
    2.5071   -8.9181   -0.0000 C   0  0  0  0  0  0  0  0  0  0  0  0
   -0.1074  -10.4104   -0.0000 C   0  0  0  0  0  0  0  0  0  0  0  0
   -1.4088   -8.1540   -0.0000 C   0  0  0  0  0  0  0  0  0  0  0  0
    2.4952  -10.4104   -0.0000 C   0  0  0  0  0  0  0  0  0  0  0  0
    3.7965   -8.1540   -0.0000 C   0  0  0  0  0  0  0  0  0  0  0  0
    1.1819  -11.1506   -0.0000 C   0  0  0  0  0  0  0  0  0  0  0  0
  1  2  2  0
  1  3  1  0
  2  4  1  0
  2  5  1  0
  3  6  2  0
  4  7  2  0
  4  8  1  0
  5  9  2  0
  7 10  1  0
  8 11  2  0
 10 12  1  0
 10 13  1  0
 11 14  1  0
 12 15  2  0
 13 16  2  0
 13 17  1  0
 14 18  1  0
 16 19  1  0
 18 20  1  0
 20 21  2  0
 20 22  1  0
 21 23  1  0
 21 24  1  0
 22 25  2  0
 22 26  1  0
 23 27  2  0
  6  9  1  0
 11 12  1  0
 15 16  1  0
 25 27  1  0
M  END
>  <MolRegNo>  (1) 
501546

>  <m>  (1) 
=

>  <Value>  (1) 
1700

>  <Unit>  (1) 
nM

>  <Type>  (1) 
IC50

>  <pValue>  (1) 
5.77

>  <Ligand Efficiency>  (1) 
0

>  <Binding Efficiency>  (1) 
0

>  <Surface Efficiency>  (1) 
0

>  <Assay Index>  (1) 
368751

>  <Assay Category>  (1) 


>  <Assay Organism>  (1) 


>  <Target ID>  (1) 
11365

>  <Target Name>  (1) 
Cytochrome P450 2D6

>  <Target Organism>  (1) 
Homo sapiens

>  <Target Description>  (1) 
Target is a single protein chain

>  <Sequence Accession>  (1) 
P10635

>  <Reference>  (1) 
Bioorg Med Chem Lett 19 (13), 3602-3606 (2009)

>  <Pubmed ID>  (1) 
19467868

>  <DOI>  (1) 
10.1016/j.bmcl.2009.04.127

$$$$
