4wnv_ligand_839
     RDKit          2D

 32 34  0  0  0  0  0  0  0  0999 V2000
    0.0000   -0.0000   -0.0000 S   0  0  0  0  0  0  0  0  0  0  0  0
    0.9523    0.8761   -0.0000 O   0  0  0  0  0  0  0  0  0  0  0  0
   -0.2793    1.2697   -0.0000 O   0  0  0  0  0  0  0  0  0  0  0  0
    1.5236   -0.4952   -0.0000 N   0  0  0  0  0  0  0  0  0  0  0  0
   -1.2189   -1.0665   -0.0000 C   0  0  0  0  0  0  0  0  0  0  0  0
    2.7171    0.5841   -0.0000 C   0  0  0  0  0  0  0  0  0  0  0  0
    1.8411   -2.0569   -0.0000 C   0  0  0  0  0  0  0  0  0  0  0  0
   -2.4505   -0.6475   -0.0000 F   0  0  0  0  0  0  0  0  0  0  0  0
   -2.1966   -1.9172   -0.0000 F   0  0  0  0  0  0  0  0  0  0  0  0
   -1.0158   -2.1077   -0.0000 F   0  0  0  0  0  0  0  0  0  0  0  0
    3.1361    2.0569   -0.0000 C   0  0  0  0  0  0  0  0  0  0  0  0
    4.2154    0.8507   -0.0000 C   0  0  0  0  0  0  0  0  0  0  0  0
    0.6222   -3.1108   -0.0000 C   0  0  0  0  0  0  0  0  0  0  0  0
    0.7618   -4.6852   -0.0000 N   0  0  0  0  0  0  0  0  0  0  0  0
   -0.9650   -2.7679   -0.0000 C   0  0  0  0  0  0  0  0  0  0  0  0
    2.1458   -5.4851   -0.0000 C   0  0  0  0  0  0  0  0  0  0  0  0
   -0.6983   -5.3454   -0.0000 C   0  0  0  0  0  0  0  0  0  0  0  0
   -1.7776   -4.1519   -0.0000 C   0  0  0  0  0  0  0  0  0  0  0  0
    3.2504   -4.8248   -0.0000 O   0  0  0  0  0  0  0  0  0  0  0  0
    2.1331   -7.0849   -0.0000 C   0  0  0  0  0  0  0  0  0  0  0  0
    3.5171   -7.8848   -0.0000 C   0  0  0  0  0  0  0  0  0  0  0  0
    4.6217   -7.2246   -0.0000 N   0  0  0  0  0  0  0  0  0  0  0  0
    3.5044   -9.4846   -0.0000 C   0  0  0  0  0  0  0  0  0  0  0  0
    4.8883  -10.2845   -0.0000 C   0  0  0  0  0  0  0  0  0  0  0  0
    4.8756  -11.8843   -0.0000 C   0  0  0  0  0  0  0  0  0  0  0  0
    6.2723   -9.4719   -0.0000 C   0  0  0  0  0  0  0  0  0  0  0  0
    3.7456  -12.5192   -0.0000 F   0  0  0  0  0  0  0  0  0  0  0  0
    6.2596  -12.6715   -0.0000 C   0  0  0  0  0  0  0  0  0  0  0  0
    7.6563  -10.2591   -0.0000 C   0  0  0  0  0  0  0  0  0  0  0  0
    7.6436  -11.8589   -0.0000 C   0  0  0  0  0  0  0  0  0  0  0  0
    8.7609   -9.5989   -0.0000 F   0  0  0  0  0  0  0  0  0  0  0  0
    8.7482  -12.4938   -0.0000 F   0  0  0  0  0  0  0  0  0  0  0  0
  1  2  2  0
  1  3  2  0
  1  4  1  0
  1  5  1  0
  4  6  1  0
  4  7  1  0
  5  8  1  0
  5  9  1  0
  5 10  1  0
  6 11  1  0
  6 12  1  0
 13  7  1  6
 13 14  1  0
 13 15  1  0
 14 16  1  0
 14 17  1  0
 15 18  1  0
 16 19  2  0
 16 20  1  0
 20 21  1  0
 21 22  1  1
 21 23  1  0
 23 24  1  0
 24 25  2  0
 24 26  1  0
 25 27  1  0
 25 28  1  0
 26 29  2  0
 28 30  2  0
 29 31  1  0
 30 32  1  0
 11 12  1  0
 17 18  1  0
 29 30  1  0
M  END
>  <MolRegNo>  (1) 
566029

>  <m>  (1) 
=

>  <Value>  (1) 
100

>  <Unit>  (1) 
nM

>  <Type>  (1) 
IC50

>  <pValue>  (1) 
7

>  <Ligand Efficiency>  (1) 
0

>  <Binding Efficiency>  (1) 
0

>  <Surface Efficiency>  (1) 
0

>  <Assay Index>  (1) 
428036

>  <Assay Category>  (1) 


>  <Assay Organism>  (1) 
Homo sapiens

>  <Target ID>  (1) 
11365

>  <Target Name>  (1) 
Cytochrome P450 2D6

>  <Target Organism>  (1) 
Homo sapiens

>  <Target Description>  (1) 
Target is a single protein chain

>  <Sequence Accession>  (1) 
P10635

>  <Reference>  (1) 
Bioorg Med Chem Lett 19 (16), 4818-4823 (2009)

>  <Pubmed ID>  (1) 
19576767

>  <DOI>  (1) 
10.1016/j.bmcl.2009.06.036

$$$$
