4wnv_ligand_949
     RDKit          2D

 46 49  0  0  0  0  0  0  0  0999 V2000
    0.0000   -0.0000   -0.0000 F   0  0  0  0  0  0  0  0  0  0  0  0
   -1.3297   -0.7004   -0.0000 C   0  0  0  0  0  0  0  0  0  0  0  0
   -1.3890   -2.1963   -0.0000 C   0  0  0  0  0  0  0  0  0  0  0  0
   -2.6118    0.0950   -0.0000 C   0  0  0  0  0  0  0  0  0  0  0  0
   -0.1187   -2.9798   -0.0000 F   0  0  0  0  0  0  0  0  0  0  0  0
   -2.7187   -2.8967   -0.0000 C   0  0  0  0  0  0  0  0  0  0  0  0
   -3.9415   -0.5936   -0.0000 C   0  0  0  0  0  0  0  0  0  0  0  0
   -4.0008   -2.0895   -0.0000 C   0  0  0  0  0  0  0  0  0  0  0  0
   -5.2118    0.2137   -0.0000 N   0  0  0  0  0  0  0  0  0  0  0  0
   -6.5414   -0.4867   -0.0000 C   0  0  0  0  0  0  0  0  0  0  0  0
   -5.1643    1.7214   -0.0000 C   0  0  0  0  0  0  0  0  0  0  0  0
   -7.8117    0.3205   -0.0000 C   0  0  0  0  0  0  0  0  0  0  0  0
   -6.4583    2.5287   -0.0000 C   0  0  0  0  0  0  0  0  0  0  0  0
   -7.7761    1.8283   -0.0000 N   0  0  0  0  0  0  0  0  0  0  0  0
   -9.0582    2.6237   -0.0000 C   0  0  0  0  0  0  0  0  0  0  0  0
   -9.0345    4.1314   -0.0000 O   0  0  0  0  0  0  0  0  0  0  0  0
  -10.3998    1.9945   -0.0000 C   0  0  0  0  0  0  0  0  0  0  0  0
  -10.4235    0.5105   -0.0000 C   0  0  0  0  0  0  0  0  0  0  0  0
  -11.7057    2.7661   -0.0000 C   0  0  0  0  0  0  0  0  0  0  0  0
  -11.7413   -0.2256   -0.0000 C   0  0  0  0  0  0  0  0  0  0  0  0
   -9.1413   -0.2256   -0.0000 C   0  0  0  0  0  0  0  0  0  0  0  0
  -13.0116    2.0301   -0.0000 N   0  0  0  0  0  0  0  0  0  0  0  0
  -13.0353    0.5461   -0.0000 C   0  0  0  0  0  0  0  0  0  0  0  0
  -11.7650   -1.7096   -0.0000 C   0  0  0  0  0  0  0  0  0  0  0  0
   -9.1651   -1.7214   -0.0000 C   0  0  0  0  0  0  0  0  0  0  0  0
  -14.2819    2.8255   -0.0000 C   0  0  0  0  0  0  0  0  0  0  0  0
  -10.4829   -2.4575   -0.0000 C   0  0  0  0  0  0  0  0  0  0  0  0
  -14.2463    4.3332   -0.0000 C   0  0  0  0  0  0  0  0  0  0  0  0
  -15.5284    5.1405   -0.0000 C   0  0  0  0  0  0  0  0  0  0  0  0
  -12.9403    5.0574   -0.0000 C   0  0  0  0  0  0  0  0  0  0  0  0
  -16.8581    4.4401   -0.0000 C   0  0  0  0  0  0  0  0  0  0  0  0
  -18.1402    5.2474   -0.0000 C   0  0  0  0  0  0  0  0  0  0  0  0
  -16.9056    2.9561   -0.0000 C   0  0  0  0  0  0  0  0  0  0  0  0
  -19.4699    4.5351   -0.0000 N   0  0  0  0  0  0  0  0  0  0  0  0
  -18.2352    2.2557   -0.0000 C   0  0  0  0  0  0  0  0  0  0  0  0
  -19.5292    3.0511   -0.0000 C   0  0  0  0  0  0  0  0  0  0  0  0
  -20.8589    2.3506   -0.0000 O   0  0  0  0  0  0  0  0  0  0  0  0
  -20.9182    0.8666   -0.0000 C   0  0  0  0  0  0  0  0  0  0  0  0
    2.1844    5.4136   -0.0000 O   0  0  0  0  0  0  0  0  0  0  0  0
    2.1726    3.9296   -0.0000 C   0  0  0  0  0  0  0  0  0  0  0  0
    3.4547    3.1935   -0.0000 O   0  0  0  0  0  0  0  0  0  0  0  0
    0.8666    3.1935   -0.0000 C   0  0  0  0  0  0  0  0  0  0  0  0
   -0.4393    3.9533   -0.0000 C   0  0  0  0  0  0  0  0  0  0  0  0
   -1.7452    3.2173   -0.0000 C   0  0  0  0  0  0  0  0  0  0  0  0
   -1.7570    1.7333   -0.0000 O   0  0  0  0  0  0  0  0  0  0  0  0
   -3.0511    3.9771   -0.0000 O   0  0  0  0  0  0  0  0  0  0  0  0
  1  2  1  0
  2  3  2  0
  2  4  1  0
  3  5  1  0
  3  6  1  0
  4  7  2  0
  6  8  2  0
  7  9  1  0
  9 10  1  0
  9 11  1  0
 10 12  1  0
 11 13  1  0
 12 14  1  0
 14 15  1  0
 15 16  2  0
 17 15  1  6
 17 18  1  0
 17 19  1  0
 18 20  1  0
 18 21  1  6
 19 22  1  0
 20 23  1  6
 20 24  1  0
 21 25  1  0
 22 26  1  0
 24 27  1  0
 26 28  1  0
 28 29  1  0
 28 30  1  1
 29 31  1  0
 31 32  2  0
 31 33  1  0
 32 34  1  0
 33 35  2  0
 34 36  2  0
 36 37  1  0
 37 38  1  0
 39 40  2  0
 40 41  1  0
 40 42  1  0
 42 43  2  0
 43 44  1  0
 44 45  2  0
 44 46  1  0
  7  8  1  0
 13 14  1  0
 22 23  1  0
 25 27  1  0
 35 36  1  0
M  END
>  <MolRegNo>  (1) 
613295

>  <m>  (1) 
=

>  <Value>  (1) 
6500

>  <Unit>  (1) 
nM

>  <Type>  (1) 
IC50

>  <pValue>  (1) 
5.19

>  <Ligand Efficiency>  (1) 
0

>  <Binding Efficiency>  (1) 
0

>  <Surface Efficiency>  (1) 
0

>  <Assay Index>  (1) 
461505

>  <Assay Category>  (1) 


>  <Assay Organism>  (1) 


>  <Target ID>  (1) 
11365

>  <Target Name>  (1) 
Cytochrome P450 2D6

>  <Target Organism>  (1) 
Homo sapiens

>  <Target Description>  (1) 
Target is a single protein chain

>  <Sequence Accession>  (1) 
P10635

>  <Reference>  (1) 
Bioorg Med Chem Lett 20 (5), 1728-1734 (2010)

>  <Pubmed ID>  (1) 
20137944

>  <DOI>  (1) 
10.1016/j.bmcl.2010.01.063

$$$$
