4wnv_ligand_428
     RDKit          2D

 37 40  0  0  1  0  0  0  0  0999 V2000
    0.0000   -0.0000   -0.0000 S   0  0  0  0  0  0  0  0  0  0  0  0
    1.2043    0.8943   -0.0000 C   0  0  0  0  0  0  0  0  0  0  0  0
    0.4531   -1.4190   -0.0000 C   0  0  0  0  0  0  0  0  0  0  0  0
    2.4086    0.0238   -0.0000 N   0  0  0  0  0  0  0  0  0  0  0  0
    1.1924    2.4086   -0.0000 N   0  0  0  0  0  0  0  0  0  0  0  0
    1.9436   -1.4070   -0.0000 C   0  0  0  0  0  0  0  0  0  0  0  0
   -0.3339   -2.6829   -0.0000 C   0  0  0  0  0  0  0  0  0  0  0  0
   -0.1192    3.1837   -0.0000 C   0  0  0  0  0  0  0  0  0  0  0  0
    2.8141   -2.5994   -0.0000 C   0  0  0  0  0  0  0  0  0  0  0  0
   -1.8482   -2.6471   -0.0000 O   0  0  0  0  0  0  0  0  0  0  0  0
    0.3816   -3.9826   -0.0000 C   0  0  0  0  0  0  0  0  0  0  0  0
   -1.4309    2.4444   -0.0000 O   0  0  0  0  0  0  0  0  0  0  0  0
   -0.1312    4.6981   -0.0000 N   0  0  0  0  0  0  0  0  0  0  0  0
   -1.4428    5.4612   -0.0000 C   0  0  0  0  0  0  0  0  0  0  0  0
   -1.4547    6.9755   -0.0000 C   0  0  0  0  0  0  0  0  0  0  0  0
   -2.7544    4.7338   -0.0000 C   0  0  0  0  0  0  0  0  0  0  0  0
   -2.7664    7.7506   -0.0000 C   0  0  0  0  0  0  0  0  0  0  0  0
   -0.1550    7.7387   -0.0000 C   0  0  0  0  0  0  0  0  0  0  0  0
   -4.0661    5.4850   -0.0000 N   0  0  0  0  0  0  0  0  0  0  0  0
   -4.0780    6.9994   -0.0000 C   0  0  0  0  0  0  0  0  0  0  0  0
    1.1328    6.9875   -0.0000 N   0  0  0  0  0  0  0  0  0  0  0  0
   -5.3777    4.7457   -0.0000 C   0  0  0  0  0  0  0  0  0  0  0  0
    2.4206    7.7506   -0.0000 C   0  0  0  0  0  0  0  0  0  0  0  0
    1.1209    5.4850   -0.0000 C   0  0  0  0  0  0  0  0  0  0  0  0
   -6.6774    5.5089   -0.0000 C   0  0  0  0  0  0  0  0  0  0  0  0
    3.7084    6.9994   -0.0000 C   0  0  0  0  0  0  0  0  0  0  0  0
    2.4086    4.7457   -0.0000 C   0  0  0  0  0  0  0  0  0  0  0  0
   -7.9771    6.2720   -0.0000 N   0  0  0  0  0  0  0  0  0  0  0  0
    3.6845    5.5089   -0.0000 C   0  0  0  0  0  0  0  0  0  0  0  0
    5.0081    7.7625   -0.0000 C   0  0  0  0  0  0  0  0  0  0  0  0
    6.2959    7.0113   -0.0000 C   0  0  0  0  0  0  0  0  0  0  0  0
    6.2601    5.5208   -0.0000 C   0  0  0  0  0  0  0  0  0  0  0  0
    7.5837    7.7744   -0.0000 C   0  0  0  0  0  0  0  0  0  0  0  0
    7.5479    4.7815   -0.0000 C   0  0  0  0  0  0  0  0  0  0  0  0
    8.8714    7.0352   -0.0000 C   0  0  0  0  0  0  0  0  0  0  0  0
    8.8476    5.5327   -0.0000 C   0  0  0  0  0  0  0  0  0  0  0  0
   10.1354    4.7934   -0.0000 F   0  0  0  0  0  0  0  0  0  0  0  0
  1  2  1  0
  1  3  1  0
  2  4  2  0
  2  5  1  0
  3  6  2  0
  3  7  1  0
  5  8  1  0
  6  9  1  0
  7 10  2  0
  7 11  1  0
  8 12  2  0
  8 13  1  0
 14 13  1  6
 14 15  1  0
 14 16  1  0
 15 17  1  0
 15 18  1  1
 16 19  1  0
 17 20  1  0
 18 21  1  0
 19 22  1  0
 21 23  1  0
 21 24  1  0
 22 25  1  0
 23 26  1  0
 24 27  1  0
 25 28  3  0
 26 29  1  0
 26 30  1  6
 30 31  1  0
 31 32  2  0
 31 33  1  0
 32 34  1  0
 33 35  2  0
 34 36  2  0
 36 37  1  0
  4  6  1  0
 19 20  1  0
 27 29  1  0
 35 36  1  0
M  END
>  <MolRegNo>  (1) 
421518

>  <m>  (1) 
=

>  <Value>  (1) 
410

>  <Unit>  (1) 
nM

>  <Type>  (1) 
IC50

>  <pValue>  (1) 
6.39

>  <Ligand Efficiency>  (1) 
0

>  <Binding Efficiency>  (1) 
0

>  <Surface Efficiency>  (1) 
0

>  <Assay Index>  (1) 
307824

>  <Assay Category>  (1) 


>  <Assay Organism>  (1) 
Homo sapiens

>  <Target ID>  (1) 
11365

>  <Target Name>  (1) 
Cytochrome P450 2D6

>  <Target Organism>  (1) 
Homo sapiens

>  <Target Description>  (1) 
Target is a single protein chain

>  <Sequence Accession>  (1) 
P10635

>  <Reference>  (1) 
Bioorg Med Chem Lett 17 (11), 2992-2997 (2007)

>  <Pubmed ID>  (1) 
17418570

>  <DOI>  (1) 
10.1016/j.bmcl.2007.03.065

$$$$
