4wnv_ligand_815
     RDKit          2D

 36 40  0  0  0  0  0  0  0  0999 V2000
    0.0000   -0.0000   -0.0000 F   0  0  0  0  0  0  0  0  0  0  0  0
   -0.6219    1.3730   -0.0000 C   0  0  0  0  0  0  0  0  0  0  0  0
   -2.1240    1.5372   -0.0000 C   0  0  0  0  0  0  0  0  0  0  0  0
    0.2347    2.6051   -0.0000 C   0  0  0  0  0  0  0  0  0  0  0  0
   -2.7459    2.9102   -0.0000 C   0  0  0  0  0  0  0  0  0  0  0  0
   -0.3990    3.9663   -0.0000 C   0  0  0  0  0  0  0  0  0  0  0  0
   -1.8893    4.1306   -0.0000 C   0  0  0  0  0  0  0  0  0  0  0  0
   -4.2362    3.0745   -0.0000 C   0  0  0  0  0  0  0  0  0  0  0  0
   -2.5112    5.4918   -0.0000 C   0  0  0  0  0  0  0  0  0  0  0  0
   -4.8581    4.4474   -0.0000 C   0  0  0  0  0  0  0  0  0  0  0  0
   -3.9898    5.6444   -0.0000 C   0  0  0  0  0  0  0  0  0  0  0  0
   -4.6117    7.0173   -0.0000 C   0  0  0  0  0  0  0  0  0  0  0  0
   -6.1020    7.1816   -0.0000 N   0  0  0  0  0  0  0  0  0  0  0  0
   -7.1112    6.0786   -0.0000 C   0  0  0  0  0  0  0  0  0  0  0  0
   -6.8648    8.4842   -0.0000 C   0  0  0  0  0  0  0  0  0  0  0  0
   -8.4959    6.6888   -0.0000 C   0  0  0  0  0  0  0  0  0  0  0  0
   -8.3316    8.1791   -0.0000 C   0  0  0  0  0  0  0  0  0  0  0  0
   -9.7984    5.9495   -0.0000 N   0  0  0  0  0  0  0  0  0  0  0  0
  -11.1010    6.7005   -0.0000 C   0  0  0  0  0  0  0  0  0  0  0  0
  -11.1127    8.2025   -0.0000 O   0  0  0  0  0  0  0  0  0  0  0  0
  -12.4035    5.9612   -0.0000 C   0  0  0  0  0  0  0  0  0  0  0  0
  -13.7178    6.7122   -0.0000 C   0  0  0  0  0  0  0  0  0  0  0  0
  -14.9969    5.9377   -0.0000 C   0  0  0  0  0  0  0  0  0  0  0  0
  -13.7648    8.2143   -0.0000 C   0  0  0  0  0  0  0  0  0  0  0  0
  -16.3229    6.6653   -0.0000 C   0  0  0  0  0  0  0  0  0  0  0  0
  -15.0790    8.9418   -0.0000 C   0  0  0  0  0  0  0  0  0  0  0  0
  -16.3698    8.1673   -0.0000 N   0  0  0  0  0  0  0  0  0  0  0  0
  -17.6841    8.8949   -0.0000 C   0  0  0  0  0  0  0  0  0  0  0  0
  -18.9632    8.1321   -0.0000 O   0  0  0  0  0  0  0  0  0  0  0  0
  -17.7311   10.3969   -0.0000 C   0  0  0  0  0  0  0  0  0  0  0  0
  -19.0453   11.1127   -0.0000 C   0  0  0  0  0  0  0  0  0  0  0  0
  -16.4755   11.1714   -0.0000 C   0  0  0  0  0  0  0  0  0  0  0  0
  -20.3244   10.3500   -0.0000 O   0  0  0  0  0  0  0  0  0  0  0  0
  -19.0923   12.6148   -0.0000 C   0  0  0  0  0  0  0  0  0  0  0  0
  -16.5224   12.6734   -0.0000 C   0  0  0  0  0  0  0  0  0  0  0  0
  -17.8249   13.4127   -0.0000 C   0  0  0  0  0  0  0  0  0  0  0  0
  1  2  1  0
  2  3  2  0
  2  4  1  0
  3  5  1  0
  4  6  2  0
  5  7  2  0
  5  8  1  0
  7  9  1  0
  8 10  2  0
  9 11  2  0
 11 12  1  0
 12 13  1  0
 13 14  1  0
 13 15  1  0
 14 16  1  0
 15 17  1  0
 16 18  1  1
 18 19  1  0
 19 20  2  0
 19 21  1  0
 21 22  2  0
 22 23  1  0
 22 24  1  0
 23 25  1  0
 24 26  1  0
 25 27  1  0
 27 28  1  0
 28 29  2  0
 28 30  1  0
 30 31  2  0
 30 32  1  0
 31 33  1  0
 31 34  1  0
 32 35  2  0
 34 36  2  0
  6  7  1  0
 10 11  1  0
 16 17  1  0
 26 27  1  0
 35 36  1  0
M  END
>  <MolRegNo>  (1) 
564260

>  <m>  (1) 
=

>  <Value>  (1) 
29000

>  <Unit>  (1) 
nM

>  <Type>  (1) 
IC50

>  <pValue>  (1) 
4.54

>  <Ligand Efficiency>  (1) 
0

>  <Binding Efficiency>  (1) 
0

>  <Surface Efficiency>  (1) 
0

>  <Assay Index>  (1) 
426973

>  <Assay Category>  (1) 


>  <Assay Organism>  (1) 


>  <Target ID>  (1) 
11365

>  <Target Name>  (1) 
Cytochrome P450 2D6

>  <Target Organism>  (1) 
Homo sapiens

>  <Target Description>  (1) 
Target is a single protein chain

>  <Sequence Accession>  (1) 
P10635

>  <Reference>  (1) 
Bioorg Med Chem 17 (16), 5989-6002 (2009)

>  <Pubmed ID>  (1) 
19620010

>  <DOI>  (1) 
10.1016/j.bmc.2009.06.066

$$$$
