4wnv_ligand_143
     RDKit          2D

 27 29  0  0  0  0  0  0  0  0999 V2000
    0.0000   -0.0000   -0.0000 O   0  0  0  0  0  0  0  0  0  0  0  0
   -0.0120   -1.5000   -0.0000 C   0  0  0  0  0  0  0  0  0  0  0  0
    1.2960    0.7800   -0.0000 C   0  0  0  0  0  0  0  0  0  0  0  0
   -1.3080   -2.2440   -0.0000 C   0  0  0  0  0  0  0  0  0  0  0  0
    1.2960   -2.2320   -0.0000 C   0  0  0  0  0  0  0  0  0  0  0  0
    2.5920    0.0360   -0.0000 C   0  0  0  0  0  0  0  0  0  0  0  0
   -1.3080   -3.7200   -0.0000 C   0  0  0  0  0  0  0  0  0  0  0  0
    1.2840   -3.7320   -0.0000 C   0  0  0  0  0  0  0  0  0  0  0  0
    2.5680   -1.4640   -0.0000 O   0  0  0  0  0  0  0  0  0  0  0  0
    3.8880    0.8040   -0.0000 C   0  0  0  0  0  0  0  0  0  0  0  0
   -0.0120   -4.4640   -0.0000 C   0  0  0  0  0  0  0  0  0  0  0  0
    5.1840    0.0600   -0.0000 N   0  0  0  0  0  0  0  0  0  0  0  0
   -0.0240   -5.9640   -0.0000 C   0  0  0  0  0  0  0  0  0  0  0  0
    6.6240    0.4680   -0.0000 C   0  0  0  0  0  0  0  0  0  0  0  0
   -0.0360   -7.4640   -0.0000 N   0  0  0  0  0  0  0  0  0  0  0  0
    7.9200    1.2480   -0.0000 C   0  0  0  0  0  0  0  0  0  0  0  0
    6.6000    2.0040   -0.0000 C   0  0  0  0  0  0  0  0  0  0  0  0
    8.0640    0.0960   -0.0000 C   0  0  0  0  0  0  0  0  0  0  0  0
    9.3600    0.8760   -0.0000 C   0  0  0  0  0  0  0  0  0  0  0  0
   10.8360    1.1280   -0.0000 N   0  0  0  0  0  0  0  0  0  0  0  0
    9.1080   -0.6000   -0.0000 C   0  0  0  0  0  0  0  0  0  0  0  0
   11.5080   -0.1920   -0.0000 C   0  0  0  0  0  0  0  0  0  0  0  0
   10.4280   -1.2720   -0.0000 C   0  0  0  0  0  0  0  0  0  0  0  0
   12.9600   -0.5640   -0.0000 C   0  0  0  0  0  0  0  0  0  0  0  0
   10.8240   -2.7240   -0.0000 C   0  0  0  0  0  0  0  0  0  0  0  0
   13.3560   -2.0160   -0.0000 C   0  0  0  0  0  0  0  0  0  0  0  0
   12.2760   -3.0960   -0.0000 C   0  0  0  0  0  0  0  0  0  0  0  0
  1  2  1  0
  1  3  1  0
  2  4  2  0
  2  5  1  0
  3  6  1  0
  4  7  1  0
  5  8  2  0
  6  9  1  0
  6 10  1  0
  7 11  2  0
 10 12  1  0
 11 13  1  0
 12 14  1  0
 13 15  3  0
 14 16  1  0
 14 17  1  0
 14 18  1  0
 16 19  1  0
 19 20  1  0
 19 21  2  0
 20 22  1  0
 21 23  1  0
 22 24  2  0
 23 25  2  0
 24 26  1  0
 25 27  1  0
  8 11  1  0
 22 23  1  0
 26 27  2  0
M  END
>  <MolRegNo>  (1) 
301602

>  <m>  (1) 
=

>  <Value>  (1) 
120

>  <Unit>  (1) 
nM

>  <Type>  (1) 
IC50

>  <pValue>  (1) 
6.92

>  <Ligand Efficiency>  (1) 
0

>  <Binding Efficiency>  (1) 
0

>  <Surface Efficiency>  (1) 
0

>  <Assay Index>  (1) 
238811

>  <Assay Category>  (1) 


>  <Assay Organism>  (1) 
Homo sapiens

>  <Target ID>  (1) 
11365

>  <Target Name>  (1) 
Cytochrome P450 2D6

>  <Target Organism>  (1) 
Homo sapiens

>  <Target Description>  (1) 
Target is a single protein chain

>  <Sequence Accession>  (1) 
P10635

>  <Reference>  (1) 
Bioorg Med Chem Lett 15 (17), 3816-3820 (2005)

>  <Pubmed ID>  (1) 
15993593

>  <DOI>  (1) 
10.1016/j.bmcl.2005.06.007

$$$$
