4wnv_ligand_289
     RDKit          2D

 20 23  0  0  1  0  0  0  0  0999 V2000
    0.0000   -0.0000   -0.0000 O   0  0  0  0  0  0  0  0  0  0  0  0
    0.0000   -1.5261   -0.0000 C   0  0  0  0  0  0  0  0  0  0  0  0
    1.3185   -2.2708   -0.0000 N   0  0  0  0  0  0  0  0  0  0  0  0
   -1.3429   -2.2952   -0.0000 C   0  0  0  0  0  0  0  0  0  0  0  0
    2.6371   -1.4772   -0.0000 C   0  0  0  0  0  0  0  0  0  0  0  0
   -2.6981   -1.5261   -0.0000 C   0  0  0  0  0  0  0  0  0  0  0  0
   -1.3552   -3.8335   -0.0000 C   0  0  0  0  0  0  0  0  0  0  0  0
    3.9556   -2.2342   -0.0000 C   0  0  0  0  0  0  0  0  0  0  0  0
    2.6126    0.0733   -0.0000 C   0  0  0  0  0  0  0  0  0  0  0  0
   -4.0288   -2.2952   -0.0000 C   0  0  0  0  0  0  0  0  0  0  0  0
   -2.7103   -4.5904   -0.0000 C   0  0  0  0  0  0  0  0  0  0  0  0
    5.2741   -1.4528   -0.0000 C   0  0  0  0  0  0  0  0  0  0  0  0
    3.0644   -1.0744   -0.0000 C   0  0  0  0  0  0  0  0  0  0  0  0
    3.9434    0.8546   -0.0000 N   0  0  0  0  0  0  0  0  0  0  0  0
   -4.0411   -3.8213   -0.0000 C   0  0  0  0  0  0  0  0  0  0  0  0
   -5.5061   -1.8069   -0.0000 C   0  0  0  0  0  0  0  0  0  0  0  0
    5.2619    0.0977   -0.0000 C   0  0  0  0  0  0  0  0  0  0  0  0
    3.8701   -0.2686   -0.0000 C   0  0  0  0  0  0  0  0  0  0  0  0
   -5.5183   -4.2852   -0.0000 O   0  0  0  0  0  0  0  0  0  0  0  0
   -6.4217   -3.0399   -0.0000 C   0  0  0  0  0  0  0  0  0  0  0  0
  1  2  2  0
  2  3  1  0
  2  4  1  0
  5  3  1  1
  4  6  1  0
  4  7  2  0
  5  8  1  0
  5  9  1  0
  6 10  2  0
  7 11  1  0
  8 12  1  0
  8 13  1  0
  9 14  1  0
 10 15  1  0
 10 16  1  0
 12 17  1  0
 13 18  1  0
 15 19  1  0
 16 20  2  0
 11 15  2  0
 14 17  1  0
 14 18  1  0
 19 20  1  0
M  END
>  <MolRegNo>  (1) 
352902

>  <m>  (1) 
=

>  <Value>  (1) 
3600

>  <Unit>  (1) 
nM

>  <Type>  (1) 
IC50

>  <pValue>  (1) 
5.44

>  <Ligand Efficiency>  (1) 
0

>  <Binding Efficiency>  (1) 
0

>  <Surface Efficiency>  (1) 
0

>  <Assay Index>  (1) 
264228

>  <Assay Category>  (1) 


>  <Assay Organism>  (1) 
Homo sapiens

>  <Target ID>  (1) 
11365

>  <Target Name>  (1) 
Cytochrome P450 2D6

>  <Target Organism>  (1) 
Homo sapiens

>  <Target Description>  (1) 
Target is a single protein chain

>  <Sequence Accession>  (1) 
P10635

>  <Reference>  (1) 
J Med Chem 49 (14), 4425-4436 (2006)

>  <Pubmed ID>  (1) 
16821801

>  <DOI>  (1) 
10.1021/jm0602413

$$$$
