4wnv_ligand_738
     RDKit          2D

 22 24  0  0  0  0  0  0  0  0999 V2000
    0.0000   -0.0000   -0.0000 O   0  0  0  0  0  0  0  0  0  0  0  0
    1.4524    0.3214   -0.0000 C   0  0  0  0  0  0  0  0  0  0  0  0
   -0.4762   -1.4167   -0.0000 C   0  0  0  0  0  0  0  0  0  0  0  0
    1.8929    1.7500   -0.0000 C   0  0  0  0  0  0  0  0  0  0  0  0
    2.4405   -0.7857   -0.0000 C   0  0  0  0  0  0  0  0  0  0  0  0
   -1.9286   -1.8691   -0.0000 C   0  0  0  0  0  0  0  0  0  0  0  0
    0.4048   -2.6310   -0.0000 C   0  0  0  0  0  0  0  0  0  0  0  0
    3.3453    2.0834   -0.0000 C   0  0  0  0  0  0  0  0  0  0  0  0
    0.8691    2.8691   -0.0000 C   0  0  0  0  0  0  0  0  0  0  0  0
    3.8929   -0.4643   -0.0000 C   0  0  0  0  0  0  0  0  0  0  0  0
   -1.9405   -3.3691   -0.0000 C   0  0  0  0  0  0  0  0  0  0  0  0
   -3.2382   -1.1072   -0.0000 C   0  0  0  0  0  0  0  0  0  0  0  0
    1.4524   -1.5476   -0.0000 O   0  0  0  0  0  0  0  0  0  0  0  0
   -0.5000   -3.8453   -0.0000 C   0  0  0  0  0  0  0  0  0  0  0  0
    1.8929   -2.6191   -0.0000 C   0  0  0  0  0  0  0  0  0  0  0  0
    4.3453    0.9762   -0.0000 C   0  0  0  0  0  0  0  0  0  0  0  0
   -3.2501   -4.1072   -0.0000 C   0  0  0  0  0  0  0  0  0  0  0  0
   -4.5477   -1.8453   -0.0000 C   0  0  0  0  0  0  0  0  0  0  0  0
    2.8929   -1.9167   -0.0000 C   0  0  0  0  0  0  0  0  0  0  0  0
    2.6310   -3.9048   -0.0000 N   0  0  0  0  0  0  0  0  0  0  0  0
   -4.5596   -3.3453   -0.0000 C   0  0  0  0  0  0  0  0  0  0  0  0
    4.1191   -3.8929   -0.0000 C   0  0  0  0  0  0  0  0  0  0  0  0
  1  2  1  0
  3  1  1  6
  2  4  2  0
  2  5  1  0
  3  6  1  0
  3  7  1  0
  4  8  1  0
  4  9  1  0
  5 10  2  0
  6 11  2  0
  6 12  1  0
  7 13  1  0
  7 14  1  0
  7 15  1  6
  8 16  2  0
 11 17  1  0
 12 18  2  0
 13 19  1  0
 15 20  1  0
 17 21  2  0
 20 22  1  0
 10 16  1  0
 11 14  1  0
 18 21  1  0
M  END
>  <MolRegNo>  (1) 
453378

>  <m>  (1) 
=

>  <Value>  (1) 
5000

>  <Unit>  (1) 
nM

>  <Type>  (1) 
IC50

>  <pValue>  (1) 
5.3

>  <Ligand Efficiency>  (1) 
0

>  <Binding Efficiency>  (1) 
0

>  <Surface Efficiency>  (1) 
0

>  <Assay Index>  (1) 
407281

>  <Assay Category>  (1) 


>  <Assay Organism>  (1) 


>  <Target ID>  (1) 
11365

>  <Target Name>  (1) 
Cytochrome P450 2D6

>  <Target Organism>  (1) 
Homo sapiens

>  <Target Description>  (1) 
Target is a single protein chain

>  <Sequence Accession>  (1) 
P10635

>  <Reference>  (1) 
Bioorg Med Chem Lett 18 (23), 6151-6155 (2008)

>  <Pubmed ID>  (1) 
18954981

>  <DOI>  (1) 
10.1016/j.bmcl.2008.10.013

$$$$
