4wnv_ligand_883
     RDKit          2D

 31 33  0  0  0  0  0  0  0  0999 V2000
    0.0000   -0.0000   -0.0000 O   0  0  0  0  0  0  0  0  0  0  0  0
   -0.0119    1.5226   -0.0000 C   0  0  0  0  0  0  0  0  0  0  0  0
   -1.3323    2.2840   -0.0000 O   0  0  0  0  0  0  0  0  0  0  0  0
    1.2847    2.2840   -0.0000 C   0  0  0  0  0  0  0  0  0  0  0  0
    2.5814    1.5464   -0.0000 C   0  0  0  0  0  0  0  0  0  0  0  0
    3.8780    2.3078   -0.0000 C   0  0  0  0  0  0  0  0  0  0  0  0
    3.8661    3.8304   -0.0000 C   0  0  0  0  0  0  0  0  0  0  0  0
    5.1746    1.5702   -0.0000 C   0  0  0  0  0  0  0  0  0  0  0  0
    5.1508    4.5917   -0.0000 C   0  0  0  0  0  0  0  0  0  0  0  0
    6.4713    2.3316   -0.0000 C   0  0  0  0  0  0  0  0  0  0  0  0
    6.4475    3.8542   -0.0000 C   0  0  0  0  0  0  0  0  0  0  0  0
    7.7322    4.6274   -0.0000 O   0  0  0  0  0  0  0  0  0  0  0  0
    9.0288    3.8899   -0.0000 C   0  0  0  0  0  0  0  0  0  0  0  0
   10.3136    4.6631   -0.0000 C   0  0  0  0  0  0  0  0  0  0  0  0
   10.3017    6.1858   -0.0000 O   0  0  0  0  0  0  0  0  0  0  0  0
   11.6102    3.9256   -0.0000 C   0  0  0  0  0  0  0  0  0  0  0  0
   12.8949    4.6988   -0.0000 N   0  0  0  0  0  0  0  0  0  0  0  0
   14.1916    3.9613   -0.0000 C   0  0  0  0  0  0  0  0  0  0  0  0
   15.4763    4.7345   -0.0000 C   0  0  0  0  0  0  0  0  0  0  0  0
   13.4184    2.6765   -0.0000 C   0  0  0  0  0  0  0  0  0  0  0  0
   14.9291    2.6765   -0.0000 C   0  0  0  0  0  0  0  0  0  0  0  0
   16.7729    3.9970   -0.0000 C   0  0  0  0  0  0  0  0  0  0  0  0
   18.0577    4.7702   -0.0000 C   0  0  0  0  0  0  0  0  0  0  0  0
   16.7610    2.5100   -0.0000 C   0  0  0  0  0  0  0  0  0  0  0  0
   19.3543    4.0445   -0.0000 C   0  0  0  0  0  0  0  0  0  0  0  0
   18.0577    1.7725   -0.0000 C   0  0  0  0  0  0  0  0  0  0  0  0
   19.3424    2.5457   -0.0000 C   0  0  0  0  0  0  0  0  0  0  0  0
   20.6390    4.8178   -0.0000 C   0  0  0  0  0  0  0  0  0  0  0  0
   20.6390    1.8081   -0.0000 C   0  0  0  0  0  0  0  0  0  0  0  0
   21.9357    4.0921   -0.0000 C   0  0  0  0  0  0  0  0  0  0  0  0
   21.9357    2.5814   -0.0000 C   0  0  0  0  0  0  0  0  0  0  0  0
  1  2  2  0
  2  3  1  0
  2  4  1  0
  4  5  1  0
  5  6  1  0
  6  7  2  0
  6  8  1  0
  7  9  1  0
  8 10  2  0
  9 11  2  0
 11 12  1  0
 12 13  1  0
 13 14  1  0
 14 15  1  1
 14 16  1  0
 16 17  1  0
 17 18  1  0
 18 19  1  0
 18 20  1  0
 18 21  1  0
 19 22  1  0
 22 23  2  0
 22 24  1  0
 23 25  1  0
 24 26  2  0
 25 27  2  0
 25 28  1  0
 27 29  1  0
 28 30  2  0
 29 31  2  0
 10 11  1  0
 26 27  1  0
 30 31  1  0
M  END
>  <MolRegNo>  (1) 
574781

>  <m>  (1) 
=

>  <Value>  (1) 
52

>  <Unit>  (1) 
nM

>  <Type>  (1) 
IC50

>  <pValue>  (1) 
7.28

>  <Ligand Efficiency>  (1) 
0

>  <Binding Efficiency>  (1) 
0

>  <Surface Efficiency>  (1) 
0

>  <Assay Index>  (1) 
436972

>  <Assay Category>  (1) 


>  <Assay Organism>  (1) 


>  <Target ID>  (1) 
11365

>  <Target Name>  (1) 
Cytochrome P450 2D6

>  <Target Organism>  (1) 
Homo sapiens

>  <Target Description>  (1) 
Target is a single protein chain

>  <Sequence Accession>  (1) 
P10635

>  <Reference>  (1) 
J Med Chem 52 (21), 6599-6605 (2009)

>  <Pubmed ID>  (1) 
19821575

>  <DOI>  (1) 
10.1021/jm900563e

$$$$
