4wnv_ligand_1036
     RDKit          2D

 19 21  0  0  0  0  0  0  0  0999 V2000
    0.0000   -0.0000   -0.0000 O   0  0  0  0  0  0  0  0  0  0  0  0
   -1.3117   -0.7393   -0.0000 C   0  0  0  0  0  0  0  0  0  0  0  0
    1.2879   -0.7393   -0.0000 C   0  0  0  0  0  0  0  0  0  0  0  0
   -2.6235    0.0238   -0.0000 C   0  0  0  0  0  0  0  0  0  0  0  0
   -3.9352   -0.7155   -0.0000 C   0  0  0  0  0  0  0  0  0  0  0  0
   -3.9471   -2.2061   -0.0000 N   0  0  0  0  0  0  0  0  0  0  0  0
   -5.2470    0.0596   -0.0000 C   0  0  0  0  0  0  0  0  0  0  0  0
   -2.6593   -2.9455   -0.0000 C   0  0  0  0  0  0  0  0  0  0  0  0
   -5.2589   -2.9335   -0.0000 C   0  0  0  0  0  0  0  0  0  0  0  0
   -6.5587   -0.6916   -0.0000 N   0  0  0  0  0  0  0  0  0  0  0  0
   -1.3714   -2.1823   -0.0000 C   0  0  0  0  0  0  0  0  0  0  0  0
   -2.6712   -4.4361   -0.0000 C   0  0  0  0  0  0  0  0  0  0  0  0
   -6.5706   -2.1823   -0.0000 C   0  0  0  0  0  0  0  0  0  0  0  0
   -0.0835   -2.9097   -0.0000 C   0  0  0  0  0  0  0  0  0  0  0  0
   -1.3833   -5.1754   -0.0000 C   0  0  0  0  0  0  0  0  0  0  0  0
   -0.0954   -4.4122   -0.0000 C   0  0  0  0  0  0  0  0  0  0  0  0
    1.3475   -2.4327   -0.0000 C   0  0  0  0  0  0  0  0  0  0  0  0
    1.3356   -4.8773   -0.0000 N   0  0  0  0  0  0  0  0  0  0  0  0
    2.2180   -3.6490   -0.0000 N   0  0  0  0  0  0  0  0  0  0  0  0
  1  2  1  0
  1  3  1  0
  2  4  1  0
  4  5  1  0
  5  6  1  0
  5  7  1  0
  6  8  1  0
  6  9  1  0
  7 10  1  0
  8 11  2  0
  8 12  1  0
  9 13  1  0
 11 14  1  0
 12 15  2  0
 14 16  2  0
 14 17  1  0
 16 18  1  0
 17 19  2  0
 10 13  1  0
 15 16  1  0
 18 19  1  0
M  END
>  <MolRegNo>  (1) 
648349

>  <m>  (1) 
=

>  <Value>  (1) 
220

>  <Unit>  (1) 
nM

>  <Type>  (1) 
IC50

>  <pValue>  (1) 
6.66

>  <Ligand Efficiency>  (1) 
0

>  <Binding Efficiency>  (1) 
0

>  <Surface Efficiency>  (1) 
0

>  <Assay Index>  (1) 
485181

>  <Assay Category>  (1) 


>  <Assay Organism>  (1) 


>  <Target ID>  (1) 
11365

>  <Target Name>  (1) 
Cytochrome P450 2D6

>  <Target Organism>  (1) 
Homo sapiens

>  <Target Description>  (1) 
Target is a single protein chain

>  <Sequence Accession>  (1) 
P10635

>  <Reference>  (1) 
Bioorg Med Chem Lett 20 (13), 3941-3945 (2010)

>  <Pubmed ID>  (1) 
20570146

>  <DOI>  (1) 
10.1016/j.bmcl.2010.05.008

$$$$
