4wnv_ligand_247
     RDKit          2D

 29 32  0  0  0  0  0  0  0  0999 V2000
    0.0000   -0.0000   -0.0000 O   0  0  0  0  0  0  0  0  0  0  0  0
    1.2819    0.7715   -0.0000 C   0  0  0  0  0  0  0  0  0  0  0  0
   -1.3175    0.7477   -0.0000 C   0  0  0  0  0  0  0  0  0  0  0  0
    1.2581    2.2788   -0.0000 C   0  0  0  0  0  0  0  0  0  0  0  0
    2.5756    0.0356   -0.0000 C   0  0  0  0  0  0  0  0  0  0  0  0
   -2.6230   -0.0000   -0.0000 C   0  0  0  0  0  0  0  0  0  0  0  0
    2.5281    3.0503   -0.0000 N   0  0  0  0  0  0  0  0  0  0  0  0
    3.8574    0.8071   -0.0000 C   0  0  0  0  0  0  0  0  0  0  0  0
   -3.9286    0.7596   -0.0000 C   0  0  0  0  0  0  0  0  0  0  0  0
    3.8337    2.3263   -0.0000 C   0  0  0  0  0  0  0  0  0  0  0  0
   -5.2461    0.0237   -0.0000 N   0  0  0  0  0  0  0  0  0  0  0  0
    5.1155    3.0978   -0.0000 C   0  0  0  0  0  0  0  0  0  0  0  0
   -5.2580   -1.4599   -0.0000 C   0  0  0  0  0  0  0  0  0  0  0  0
   -6.5517    0.7834   -0.0000 C   0  0  0  0  0  0  0  0  0  0  0  0
    6.4093    2.3738   -0.0000 N   0  0  0  0  0  0  0  0  0  0  0  0
   -6.5636   -2.1958   -0.0000 C   0  0  0  0  0  0  0  0  0  0  0  0
   -7.8691    0.0475   -0.0000 C   0  0  0  0  0  0  0  0  0  0  0  0
    6.3974    0.8783   -0.0000 C   0  0  0  0  0  0  0  0  0  0  0  0
    7.6792    3.1453   -0.0000 C   0  0  0  0  0  0  0  0  0  0  0  0
   -7.8810   -1.4361   -0.0000 C   0  0  0  0  0  0  0  0  0  0  0  0
    7.6792    0.1543   -0.0000 C   0  0  0  0  0  0  0  0  0  0  0  0
    8.9730    2.4094   -0.0000 C   0  0  0  0  0  0  0  0  0  0  0  0
   -9.1985   -2.1720   -0.0000 C   0  0  0  0  0  0  0  0  0  0  0  0
    8.9611    0.9258   -0.0000 C   0  0  0  0  0  0  0  0  0  0  0  0
  -10.5041   -1.4124   -0.0000 C   0  0  0  0  0  0  0  0  0  0  0  0
  -11.8927   -2.0177   -0.0000 N   0  0  0  0  0  0  0  0  0  0  0  0
  -10.6821    0.0831   -0.0000 C   0  0  0  0  0  0  0  0  0  0  0  0
  -12.9135   -0.8902   -0.0000 C   0  0  0  0  0  0  0  0  0  0  0  0
  -12.1538    0.4035   -0.0000 N   0  0  0  0  0  0  0  0  0  0  0  0
  1  2  1  0
  1  3  1  0
  2  4  2  0
  2  5  1  0
  3  6  1  0
  4  7  1  0
  5  8  2  0
  6  9  1  0
  7 10  2  0
  9 11  1  0
 10 12  1  0
 11 13  1  0
 11 14  1  0
 12 15  1  0
 13 16  1  0
 14 17  1  0
 15 18  1  0
 15 19  1  0
 16 20  1  0
 18 21  1  0
 19 22  1  0
 20 23  1  0
 21 24  1  0
 23 25  1  0
 25 26  1  0
 25 27  2  0
 26 28  2  0
 27 29  1  0
  8 10  1  0
 17 20  1  0
 22 24  1  0
 28 29  1  0
M  END
>  <MolRegNo>  (1) 
339521

>  <m>  (1) 
=

>  <Value>  (1) 
3000

>  <Unit>  (1) 
nM

>  <Type>  (1) 
IC50

>  <pValue>  (1) 
5.52

>  <Ligand Efficiency>  (1) 
0

>  <Binding Efficiency>  (1) 
0

>  <Surface Efficiency>  (1) 
0

>  <Assay Index>  (1) 
257619

>  <Assay Category>  (1) 


>  <Assay Organism>  (1) 
Homo sapiens

>  <Target ID>  (1) 
11365

>  <Target Name>  (1) 
Cytochrome P450 2D6

>  <Target Organism>  (1) 
Homo sapiens

>  <Target Description>  (1) 
Target is a single protein chain

>  <Sequence Accession>  (1) 
P10635

>  <Reference>  (1) 
Bioorg Med Chem Lett 16 (4), 989-994 (2006)

>  <Pubmed ID>  (1) 
16297617

>  <DOI>  (1) 
10.1016/j.bmcl.2005.10.087

$$$$
