4wnv_ligand_778
     RDKit          2D

 22 24  0  0  0  0  0  0  0  0999 V2000
    0.0000   -0.0000   -0.0000 Cl  0  0  0  0  0  0  0  0  0  0  0  0
    1.2862    0.7552   -0.0000 C   0  0  0  0  0  0  0  0  0  0  0  0
    2.5724    0.0236   -0.0000 C   0  0  0  0  0  0  0  0  0  0  0  0
    1.2744    2.2656   -0.0000 C   0  0  0  0  0  0  0  0  0  0  0  0
    2.5606   -1.4632   -0.0000 Cl  0  0  0  0  0  0  0  0  0  0  0  0
    3.8587    0.7788   -0.0000 C   0  0  0  0  0  0  0  0  0  0  0  0
   -0.0354    3.0208   -0.0000 O   0  0  0  0  0  0  0  0  0  0  0  0
    2.5606    3.0208   -0.0000 C   0  0  0  0  0  0  0  0  0  0  0  0
    3.8469    2.2892   -0.0000 C   0  0  0  0  0  0  0  0  0  0  0  0
   -0.0472    4.5313   -0.0000 C   0  0  0  0  0  0  0  0  0  0  0  0
   -1.3570    5.2865   -0.0000 C   0  0  0  0  0  0  0  0  0  0  0  0
    1.2390    5.2865   -0.0000 C   0  0  0  0  0  0  0  0  0  0  0  0
   -2.6668    4.5431   -0.0000 C   0  0  0  0  0  0  0  0  0  0  0  0
   -1.3688    6.7969   -0.0000 C   0  0  0  0  0  0  0  0  0  0  0  0
    2.5252    4.5431   -0.0000 C   0  0  0  0  0  0  0  0  0  0  0  0
    1.2272    6.7969   -0.0000 C   0  0  0  0  0  0  0  0  0  0  0  0
   -3.9767    5.2983   -0.0000 N   0  0  0  0  0  0  0  0  0  0  0  0
   -2.6786    7.5521   -0.0000 C   0  0  0  0  0  0  0  0  0  0  0  0
    3.8115    5.2983   -0.0000 N   0  0  0  0  0  0  0  0  0  0  0  0
    2.5134    7.5521   -0.0000 C   0  0  0  0  0  0  0  0  0  0  0  0
   -3.9885    6.8087   -0.0000 C   0  0  0  0  0  0  0  0  0  0  0  0
    3.7997    6.8087   -0.0000 C   0  0  0  0  0  0  0  0  0  0  0  0
  1  2  1  0
  2  3  2  0
  2  4  1  0
  3  5  1  0
  3  6  1  0
  4  7  1  0
  4  8  2  0
  6  9  2  0
  7 10  1  0
 10 11  1  0
 12 10  1  1
 11 13  2  0
 11 14  1  0
 12 15  1  0
 12 16  1  0
 13 17  1  0
 14 18  2  0
 15 19  1  0
 16 20  1  0
 17 21  2  0
 19 22  1  0
  8  9  1  0
 18 21  1  0
 20 22  1  0
M  END
>  <MolRegNo>  (1) 
561832

>  <m>  (1) 
=

>  <Value>  (1) 
2400

>  <Unit>  (1) 
nM

>  <Type>  (1) 
IC50

>  <pValue>  (1) 
5.62

>  <Ligand Efficiency>  (1) 
0

>  <Binding Efficiency>  (1) 
0

>  <Surface Efficiency>  (1) 
0

>  <Assay Index>  (1) 
420838

>  <Assay Category>  (1) 


>  <Assay Organism>  (1) 


>  <Target ID>  (1) 
11365

>  <Target Name>  (1) 
Cytochrome P450 2D6

>  <Target Organism>  (1) 
Homo sapiens

>  <Target Description>  (1) 
Target is a single protein chain

>  <Sequence Accession>  (1) 
P10635

>  <Reference>  (1) 
Bioorg Med Chem Lett 19 (10), 2829-2834 (2009)

>  <Pubmed ID>  (1) 
19359175

>  <DOI>  (1) 
10.1016/j.bmcl.2009.03.090

$$$$
