4wnv_ligand_134
     RDKit          2D

 20 21  0  0  0  0  0  0  0  0999 V2000
    0.0000   -0.0000   -0.0000 O   0  0  0  0  0  0  0  0  0  0  0  0
   -1.1247   -0.9945   -0.0000 C   0  0  0  0  0  0  0  0  0  0  0  0
   -0.6156    1.3733   -0.0000 C   0  0  0  0  0  0  0  0  0  0  0  0
   -1.1366   -2.4862   -0.0000 C   0  0  0  0  0  0  0  0  0  0  0  0
   -2.4389   -0.2368   -0.0000 C   0  0  0  0  0  0  0  0  0  0  0  0
   -2.1074    1.2313   -0.0000 C   0  0  0  0  0  0  0  0  0  0  0  0
    0.6867    2.1429   -0.0000 C   0  0  0  0  0  0  0  0  0  0  0  0
   -2.4507   -3.2321   -0.0000 C   0  0  0  0  0  0  0  0  0  0  0  0
   -0.0947   -3.5399   -0.0000 C   0  0  0  0  0  0  0  0  0  0  0  0
   -3.7412   -0.9708   -0.0000 C   0  0  0  0  0  0  0  0  0  0  0  0
    1.9771    1.3970   -0.0000 C   0  0  0  0  0  0  0  0  0  0  0  0
   -3.7530   -2.4626   -0.0000 C   0  0  0  0  0  0  0  0  0  0  0  0
    1.3497   -3.1374   -0.0000 C   0  0  0  0  0  0  0  0  0  0  0  0
    1.9535   -0.0947   -0.0000 O   0  0  0  0  0  0  0  0  0  0  0  0
    3.2439    2.1666   -0.0000 C   0  0  0  0  0  0  0  0  0  0  0  0
    4.5463    1.4207   -0.0000 N   0  0  0  0  0  0  0  0  0  0  0  0
    5.8367    2.1903   -0.0000 C   0  0  0  0  0  0  0  0  0  0  0  0
    7.1272    2.9716   -0.0000 C   0  0  0  0  0  0  0  0  0  0  0  0
    6.5589    3.5162   -0.0000 C   0  0  0  0  0  0  0  0  0  0  0  0
    7.1272    1.4444   -0.0000 C   0  0  0  0  0  0  0  0  0  0  0  0
  1  2  1  0
  1  3  1  0
  2  4  2  0
  2  5  1  0
  3  6  2  0
  3  7  1  0
  4  8  1  0
  4  9  1  0
  5 10  2  0
  7 11  1  0
  8 12  2  0
  9 13  1  0
 11 14  1  0
 11 15  1  0
 15 16  1  0
 16 17  1  0
 17 18  1  0
 17 19  1  0
 17 20  1  0
  5  6  1  0
 10 12  1  0
M  END
>  <MolRegNo>  (1) 
301292

>  <m>  (1) 
=

>  <Value>  (1) 
4800

>  <Unit>  (1) 
nM

>  <Type>  (1) 
IC50

>  <pValue>  (1) 
5.32

>  <Ligand Efficiency>  (1) 
0

>  <Binding Efficiency>  (1) 
0

>  <Surface Efficiency>  (1) 
0

>  <Assay Index>  (1) 
238811

>  <Assay Category>  (1) 


>  <Assay Organism>  (1) 
Homo sapiens

>  <Target ID>  (1) 
11365

>  <Target Name>  (1) 
Cytochrome P450 2D6

>  <Target Organism>  (1) 
Homo sapiens

>  <Target Description>  (1) 
Target is a single protein chain

>  <Sequence Accession>  (1) 
P10635

>  <Reference>  (1) 
Bioorg Med Chem Lett 15 (17), 3816-3820 (2005)

>  <Pubmed ID>  (1) 
15993593

>  <DOI>  (1) 
10.1016/j.bmcl.2005.06.007

$$$$
