4wnv_ligand_767
     RDKit          2D

 25 27  0  0  0  0  0  0  0  0999 V2000
    0.0000   -0.0000   -0.0000 O   0  0  0  0  0  0  0  0  0  0  0  0
   -0.0120   -1.4952   -0.0000 C   0  0  0  0  0  0  0  0  0  0  0  0
   -1.3278   -2.2369   -0.0000 N   0  0  0  0  0  0  0  0  0  0  0  0
    1.2799   -2.2369   -0.0000 C   0  0  0  0  0  0  0  0  0  0  0  0
    2.5718   -1.4713   -0.0000 C   0  0  0  0  0  0  0  0  0  0  0  0
    1.2680   -3.7321   -0.0000 C   0  0  0  0  0  0  0  0  0  0  0  0
    3.8637   -2.2010   -0.0000 N   0  0  0  0  0  0  0  0  0  0  0  0
    2.5599   -4.4738   -0.0000 C   0  0  0  0  0  0  0  0  0  0  0  0
    3.8518   -3.7082   -0.0000 C   0  0  0  0  0  0  0  0  0  0  0  0
    5.2991   -1.7225   -0.0000 C   0  0  0  0  0  0  0  0  0  0  0  0
    2.5479   -5.9690   -0.0000 N   0  0  0  0  0  0  0  0  0  0  0  0
    5.2872   -4.1628   -0.0000 N   0  0  0  0  0  0  0  0  0  0  0  0
    6.1843   -2.9307   -0.0000 C   0  0  0  0  0  0  0  0  0  0  0  0
    5.7417   -0.2751   -0.0000 C   0  0  0  0  0  0  0  0  0  0  0  0
    1.2321   -6.7107   -0.0000 C   0  0  0  0  0  0  0  0  0  0  0  0
    7.6796   -2.9068   -0.0000 C   0  0  0  0  0  0  0  0  0  0  0  0
    1.2201   -8.2059   -0.0000 C   0  0  0  0  0  0  0  0  0  0  0  0
    2.5120   -8.9356   -0.0000 C   0  0  0  0  0  0  0  0  0  0  0  0
   -0.0957   -8.9356   -0.0000 C   0  0  0  0  0  0  0  0  0  0  0  0
    2.5001  -10.4189   -0.0000 C   0  0  0  0  0  0  0  0  0  0  0  0
    3.8039   -8.1700   -0.0000 C   0  0  0  0  0  0  0  0  0  0  0  0
   -0.1077  -10.4308   -0.0000 C   0  0  0  0  0  0  0  0  0  0  0  0
   -1.4115   -8.1700   -0.0000 C   0  0  0  0  0  0  0  0  0  0  0  0
    1.1842  -11.1605   -0.0000 C   0  0  0  0  0  0  0  0  0  0  0  0
    5.0958   -8.9117   -0.0000 C   0  0  0  0  0  0  0  0  0  0  0  0
  1  2  2  0
  2  3  1  0
  2  4  1  0
  4  5  2  0
  4  6  1  0
  5  7  1  0
  6  8  2  0
  7  9  1  0
  7 10  1  0
  8 11  1  0
  9 12  2  0
 10 13  2  0
 10 14  1  0
 11 15  1  0
 13 16  1  0
 15 17  1  0
 17 18  2  0
 17 19  1  0
 18 20  1  0
 18 21  1  0
 19 22  2  0
 19 23  1  0
 20 24  2  0
 21 25  1  0
  8  9  1  0
 12 13  1  0
 22 24  1  0
M  END
>  <MolRegNo>  (1) 
401012

>  <m>  (1) 
=

>  <Value>  (1) 
9200

>  <Unit>  (1) 
nM

>  <Type>  (1) 
IC50

>  <pValue>  (1) 
5.04

>  <Ligand Efficiency>  (1) 
0

>  <Binding Efficiency>  (1) 
0

>  <Surface Efficiency>  (1) 
0

>  <Assay Index>  (1) 
368751

>  <Assay Category>  (1) 


>  <Assay Organism>  (1) 


>  <Target ID>  (1) 
11365

>  <Target Name>  (1) 
Cytochrome P450 2D6

>  <Target Organism>  (1) 
Homo sapiens

>  <Target Description>  (1) 
Target is a single protein chain

>  <Sequence Accession>  (1) 
P10635

>  <Reference>  (1) 
Bioorg Med Chem Lett 19 (13), 3602-3606 (2009)

>  <Pubmed ID>  (1) 
19467868

>  <DOI>  (1) 
10.1016/j.bmcl.2009.04.127

$$$$
