4wnv_ligand_656
     RDKit          2D

 35 39  0  0  0  0  0  0  0  0999 V2000
    0.0000   -0.0000   -0.0000 Cl  0  0  0  0  0  0  0  0  0  0  0  0
    1.2921   -0.7349   -0.0000 C   0  0  0  0  0  0  0  0  0  0  0  0
    2.5841    0.0237   -0.0000 C   0  0  0  0  0  0  0  0  0  0  0  0
    1.2802   -2.2285   -0.0000 C   0  0  0  0  0  0  0  0  0  0  0  0
    3.8762   -0.7112   -0.0000 C   0  0  0  0  0  0  0  0  0  0  0  0
    2.5723   -2.9634   -0.0000 C   0  0  0  0  0  0  0  0  0  0  0  0
    5.1682    0.0474   -0.0000 F   0  0  0  0  0  0  0  0  0  0  0  0
    3.8643   -2.2048   -0.0000 C   0  0  0  0  0  0  0  0  0  0  0  0
    5.1564   -2.9397   -0.0000 C   0  0  0  0  0  0  0  0  0  0  0  0
    6.4484   -2.1811   -0.0000 N   0  0  0  0  0  0  0  0  0  0  0  0
    5.1445   -4.4333   -0.0000 C   0  0  0  0  0  0  0  0  0  0  0  0
    7.7405   -2.9160   -0.0000 C   0  0  0  0  0  0  0  0  0  0  0  0
    6.4366   -5.1801   -0.0000 C   0  0  0  0  0  0  0  0  0  0  0  0
    3.8288   -5.1801   -0.0000 C   0  0  0  0  0  0  0  0  0  0  0  0
    7.7286   -4.4096   -0.0000 N   0  0  0  0  0  0  0  0  0  0  0  0
    9.0326   -2.1574   -0.0000 C   0  0  0  0  0  0  0  0  0  0  0  0
    6.4247   -6.6737   -0.0000 C   0  0  0  0  0  0  0  0  0  0  0  0
    2.5130   -4.4214   -0.0000 O   0  0  0  0  0  0  0  0  0  0  0  0
    3.8169   -6.6737   -0.0000 N   0  0  0  0  0  0  0  0  0  0  0  0
   10.3246   -2.8923   -0.0000 C   0  0  0  0  0  0  0  0  0  0  0  0
    9.0207   -0.6401   -0.0000 C   0  0  0  0  0  0  0  0  0  0  0  0
    2.5011   -7.4204   -0.0000 C   0  0  0  0  0  0  0  0  0  0  0  0
   11.6167   -2.1337   -0.0000 N   0  0  0  0  0  0  0  0  0  0  0  0
   10.3128    0.1185   -0.0000 C   0  0  0  0  0  0  0  0  0  0  0  0
    1.1854   -6.6618   -0.0000 C   0  0  0  0  0  0  0  0  0  0  0  0
    2.4893   -8.9140   -0.0000 C   0  0  0  0  0  0  0  0  0  0  0  0
   11.6048   -0.6164   -0.0000 C   0  0  0  0  0  0  0  0  0  0  0  0
   -0.1304   -7.4086   -0.0000 C   0  0  0  0  0  0  0  0  0  0  0  0
    1.1735   -9.6490   -0.0000 C   0  0  0  0  0  0  0  0  0  0  0  0
   12.8969    0.1422   -0.0000 O   0  0  0  0  0  0  0  0  0  0  0  0
   -0.1422   -8.9022   -0.0000 C   0  0  0  0  0  0  0  0  0  0  0  0
   -1.5765   -6.9344   -0.0000 C   0  0  0  0  0  0  0  0  0  0  0  0
   14.1889   -0.5927   -0.0000 C   0  0  0  0  0  0  0  0  0  0  0  0
   -1.5884   -9.3526   -0.0000 N   0  0  0  0  0  0  0  0  0  0  0  0
   -2.4774   -8.1435   -0.0000 N   0  0  0  0  0  0  0  0  0  0  0  0
  1  2  1  0
  2  3  2  0
  2  4  1  0
  3  5  1  0
  4  6  2  0
  5  7  1  0
  5  8  2  0
  8  9  1  0
  9 10  1  0
  9 11  1  0
 10 12  2  0
 11 13  2  0
 11 14  1  0
 12 15  1  0
 12 16  1  0
 13 17  1  0
 14 18  2  0
 14 19  1  0
 16 20  2  0
 16 21  1  0
 19 22  1  0
 20 23  1  0
 21 24  2  0
 22 25  2  0
 22 26  1  0
 23 27  2  0
 25 28  1  0
 26 29  2  0
 27 30  1  0
 28 31  2  0
 28 32  1  0
 30 33  1  0
 31 34  1  0
 32 35  2  0
  6  8  1  0
 13 15  1  0
 24 27  1  0
 29 31  1  0
 34 35  1  0
M  END
>  <MolRegNo>  (1) 
513805

>  <m>  (1) 
=

>  <Value>  (1) 
1200

>  <Unit>  (1) 
nM

>  <Type>  (1) 
IC50

>  <pValue>  (1) 
5.92

>  <Ligand Efficiency>  (1) 
0

>  <Binding Efficiency>  (1) 
0

>  <Surface Efficiency>  (1) 
0

>  <Assay Index>  (1) 
386364

>  <Assay Category>  (1) 


>  <Assay Organism>  (1) 


>  <Target ID>  (1) 
11365

>  <Target Name>  (1) 
Cytochrome P450 2D6

>  <Target Organism>  (1) 
Homo sapiens

>  <Target Description>  (1) 
Target is a single protein chain

>  <Sequence Accession>  (1) 
P10635

>  <Reference>  (1) 
J Med Chem 51 (21), 6631-6634 (2008)

>  <Pubmed ID>  (1) 
18842034

>  <DOI>  (1) 
10.1021/jm8005096

$$$$
