4wnv_ligand_283
     RDKit          2D

 17 20  0  0  0  0  0  0  0  0999 V2000
    0.0000   -0.0000   -0.0000 N   0  0  0  0  0  0  0  0  0  0  0  0
   -0.0707   -1.4853   -0.0000 C   0  0  0  0  0  0  0  0  0  0  0  0
   -1.2849    0.8016   -0.0000 C   0  0  0  0  0  0  0  0  0  0  0  0
    1.3085    0.7191   -0.0000 C   0  0  0  0  0  0  0  0  0  0  0  0
   -1.3910   -2.1926   -0.0000 C   0  0  0  0  0  0  0  0  0  0  0  0
    1.1788   -2.2634   -0.0000 C   0  0  0  0  0  0  0  0  0  0  0  0
   -2.6170    0.0943   -0.0000 C   0  0  0  0  0  0  0  0  0  0  0  0
    2.5699   -0.0825   -0.0000 C   0  0  0  0  0  0  0  0  0  0  0  0
   -2.7349   -2.9117   -0.0000 C   0  0  0  0  0  0  0  0  0  0  0  0
   -1.3557   -0.6837   -0.0000 C   0  0  0  0  0  0  0  0  0  0  0  0
    2.4991   -1.5679   -0.0000 C   0  0  0  0  0  0  0  0  0  0  0  0
   -3.9491   -0.6012   -0.0000 C   0  0  0  0  0  0  0  0  0  0  0  0
   -4.0198   -2.0865   -0.0000 N   0  0  0  0  0  0  0  0  0  0  0  0
   -5.2341    0.1886   -0.0000 C   0  0  0  0  0  0  0  0  0  0  0  0
   -5.3402   -2.7939   -0.0000 C   0  0  0  0  0  0  0  0  0  0  0  0
   -6.5661   -0.4951   -0.0000 C   0  0  0  0  0  0  0  0  0  0  0  0
   -6.6369   -1.9805   -0.0000 C   0  0  0  0  0  0  0  0  0  0  0  0
  2  1  1  0
  1  3  1  0
  1  4  1  0
  5  2  1  0
  2  6  1  1
  7  3  1  6
  4  8  1  0
  5  9  1  6
  5 10  1  0
  6 11  1  0
  7 12  1  0
  9 13  1  0
 12 14  1  6
 13 15  1  0
 14 16  1  0
 15 17  1  0
  7 10  1  0
  8 11  1  0
 12 13  1  0
 16 17  1  0
M  END
>  <MolRegNo>  (1) 
1248766

>  <m>  (1) 
=

>  <Value>  (1) 
60000

>  <Unit>  (1) 
nM

>  <Type>  (1) 
IC50

>  <pValue>  (1) 
4.22

>  <Ligand Efficiency>  (1) 
0

>  <Binding Efficiency>  (1) 
0

>  <Surface Efficiency>  (1) 
0

>  <Assay Index>  (1) 
259863

>  <Assay Category>  (1) 


>  <Assay Organism>  (1) 
Homo sapiens

>  <Target ID>  (1) 
11365

>  <Target Name>  (1) 
Cytochrome P450 2D6

>  <Target Organism>  (1) 
Homo sapiens

>  <Target Description>  (1) 
Target is a single protein chain

>  <Sequence Accession>  (1) 
P10635

>  <Reference>  (1) 
J Med Chem 49 (8), 2417-2430 (2006)

>  <Pubmed ID>  (1) 
16610785

>  <DOI>  (1) 
10.1021/jm0508538

$$$$
