4wnv_ligand_367
     RDKit          2D

 26 29  0  0  1  0  0  0  0  0999 V2000
    0.0000   -0.0000   -0.0000 O   0  0  0  0  0  0  0  0  0  0  0  0
    1.2951   -0.7367   -0.0000 C   0  0  0  0  0  0  0  0  0  0  0  0
   -0.0119    1.5209   -0.0000 C   0  0  0  0  0  0  0  0  0  0  0  0
    1.2833   -2.2338   -0.0000 C   0  0  0  0  0  0  0  0  0  0  0  0
    2.5784    0.0238   -0.0000 C   0  0  0  0  0  0  0  0  0  0  0  0
   -0.0356   -2.9705   -0.0000 O   0  0  0  0  0  0  0  0  0  0  0  0
    2.5665   -2.9705   -0.0000 C   0  0  0  0  0  0  0  0  0  0  0  0
    3.8736   -0.7129   -0.0000 C   0  0  0  0  0  0  0  0  0  0  0  0
   -1.3546   -2.2101   -0.0000 C   0  0  0  0  0  0  0  0  0  0  0  0
    3.8617   -2.1982   -0.0000 C   0  0  0  0  0  0  0  0  0  0  0  0
    5.1568    0.0594   -0.0000 C   0  0  0  0  0  0  0  0  0  0  0  0
    5.1568   -2.9349   -0.0000 C   0  0  0  0  0  0  0  0  0  0  0  0
    6.4520   -0.6892   -0.0000 N   0  0  0  0  0  0  0  0  0  0  0  0
    5.1449    1.5803   -0.0000 C   0  0  0  0  0  0  0  0  0  0  0  0
    6.4520   -2.1625   -0.0000 C   0  0  0  0  0  0  0  0  0  0  0  0
    7.7352    0.0713   -0.0000 C   0  0  0  0  0  0  0  0  0  0  0  0
    6.4401    2.3408   -0.0000 C   0  0  0  0  0  0  0  0  0  0  0  0
    7.7352    1.5922   -0.0000 C   0  0  0  0  0  0  0  0  0  0  0  0
    6.4282    3.8617   -0.0000 N   0  0  0  0  0  0  0  0  0  0  0  0
    9.0304    2.3527   -0.0000 C   0  0  0  0  0  0  0  0  0  0  0  0
   10.3137    1.6041   -0.0000 C   0  0  0  0  0  0  0  0  0  0  0  0
    9.0185    3.8617   -0.0000 C   0  0  0  0  0  0  0  0  0  0  0  0
   11.6088    2.3645   -0.0000 C   0  0  0  0  0  0  0  0  0  0  0  0
   10.3018    4.6221   -0.0000 C   0  0  0  0  0  0  0  0  0  0  0  0
   11.5969    3.8854   -0.0000 C   0  0  0  0  0  0  0  0  0  0  0  0
   12.8921    1.6160   -0.0000 C   0  0  0  0  0  0  0  0  0  0  0  0
  1  2  1  0
  1  3  1  0
  2  4  2  0
  2  5  1  0
  4  6  1  0
  4  7  1  0
  5  8  2  0
  6  9  1  0
  7 10  2  0
  8 11  1  0
 10 12  1  0
 11 13  1  0
 11 14  1  6
 12 15  1  0
 13 16  1  0
 14 17  1  0
 16 18  1  0
 17 19  1  6
 18 20  1  1
 20 21  2  0
 20 22  1  0
 21 23  1  0
 22 24  2  0
 23 25  2  0
 23 26  1  0
  8 10  1  0
 13 15  1  0
 17 18  1  0
 24 25  1  0
M  END
>  <MolRegNo>  (1) 
396321

>  <m>  (1) 
=

>  <Value>  (1) 
11000

>  <Unit>  (1) 
nM

>  <Type>  (1) 
IC50

>  <pValue>  (1) 
4.96

>  <Ligand Efficiency>  (1) 
0

>  <Binding Efficiency>  (1) 
0

>  <Surface Efficiency>  (1) 
0

>  <Assay Index>  (1) 
292764

>  <Assay Category>  (1) 


>  <Assay Organism>  (1) 


>  <Target ID>  (1) 
11365

>  <Target Name>  (1) 
Cytochrome P450 2D6

>  <Target Organism>  (1) 
Homo sapiens

>  <Target Description>  (1) 
Target is a single protein chain

>  <Sequence Accession>  (1) 
P10635

>  <Reference>  (1) 
Bioorg Med Chem Lett 17 (11), 2966-2970 (2007)

>  <Pubmed ID>  (1) 
17418568

>  <DOI>  (1) 
10.1016/j.bmcl.2007.03.072

$$$$
