4wnv_ligand_390
     RDKit          2D

 37 40  0  0  0  0  0  0  0  0999 V2000
    0.0000   -0.0000   -0.0000 O   0  0  0  0  0  0  0  0  0  0  0  0
   -1.3213   -0.7380   -0.0000 C   0  0  0  0  0  0  0  0  0  0  0  0
   -1.3332   -2.2379   -0.0000 N   0  0  0  0  0  0  0  0  0  0  0  0
   -2.6307    0.0357   -0.0000 C   0  0  0  0  0  0  0  0  0  0  0  0
   -0.0476   -2.9759   -0.0000 C   0  0  0  0  0  0  0  0  0  0  0  0
   -2.6426   -2.9759   -0.0000 C   0  0  0  0  0  0  0  0  0  0  0  0
   -3.9401   -0.7142   -0.0000 N   0  0  0  0  0  0  0  0  0  0  0  0
   -0.0595   -4.4758   -0.0000 C   0  0  0  0  0  0  0  0  0  0  0  0
    1.2380   -2.2141   -0.0000 C   0  0  0  0  0  0  0  0  0  0  0  0
   -3.9520   -2.2141   -0.0000 C   0  0  0  0  0  0  0  0  0  0  0  0
   -5.2614    0.0476   -0.0000 C   0  0  0  0  0  0  0  0  0  0  0  0
    1.2380   -5.2257   -0.0000 C   0  0  0  0  0  0  0  0  0  0  0  0
    2.5355   -2.9521   -0.0000 C   0  0  0  0  0  0  0  0  0  0  0  0
   -5.2734    1.5713   -0.0000 O   0  0  0  0  0  0  0  0  0  0  0  0
   -6.5828   -0.7023   -0.0000 C   0  0  0  0  0  0  0  0  0  0  0  0
    2.5355   -4.4639   -0.0000 C   0  0  0  0  0  0  0  0  0  0  0  0
   -7.9041    0.0714   -0.0000 C   0  0  0  0  0  0  0  0  0  0  0  0
   -6.5828   -2.1903   -0.0000 C   0  0  0  0  0  0  0  0  0  0  0  0
    3.8330   -5.2019   -0.0000 O   0  0  0  0  0  0  0  0  0  0  0  0
   -9.2254   -0.6785   -0.0000 C   0  0  0  0  0  0  0  0  0  0  0  0
   -7.8922   -2.9402   -0.0000 C   0  0  0  0  0  0  0  0  0  0  0  0
    5.1305   -4.4401   -0.0000 C   0  0  0  0  0  0  0  0  0  0  0  0
   -9.2373   -2.1784   -0.0000 C   0  0  0  0  0  0  0  0  0  0  0  0
    6.4161   -5.1900   -0.0000 C   0  0  0  0  0  0  0  0  0  0  0  0
    5.1067   -2.9283   -0.0000 C   0  0  0  0  0  0  0  0  0  0  0  0
  -10.5586   -2.9283   -0.0000 C   0  0  0  0  0  0  0  0  0  0  0  0
    7.7136   -4.4282   -0.0000 C   0  0  0  0  0  0  0  0  0  0  0  0
    6.4042   -2.1665   -0.0000 C   0  0  0  0  0  0  0  0  0  0  0  0
  -11.8918   -3.6663   -0.0000 N   0  0  0  0  0  0  0  0  0  0  0  0
    7.7136   -2.9045   -0.0000 N   0  0  0  0  0  0  0  0  0  0  0  0
    9.0111   -2.1427   -0.0000 C   0  0  0  0  0  0  0  0  0  0  0  0
   10.4515   -2.5236   -0.0000 C   0  0  0  0  0  0  0  0  0  0  0  0
    9.3920   -0.6785   -0.0000 C   0  0  0  0  0  0  0  0  0  0  0  0
   10.8324   -1.0594   -0.0000 C   0  0  0  0  0  0  0  0  0  0  0  0
    2.6664    1.2380   -0.0000 O   0  0  0  0  0  0  0  0  0  0  0  0
    2.6069   -0.1190   -0.0000 C   0  0  0  0  0  0  0  0  0  0  0  0
    3.7497   -0.8333   -0.0000 O   0  0  0  0  0  0  0  0  0  0  0  0
  1  2  2  0
  2  3  1  0
  2  4  1  0
  3  5  1  0
  3  6  1  0
  4  7  1  0
  5  8  2  0
  5  9  1  0
  6 10  1  0
  7 11  1  0
  8 12  1  0
  9 13  2  0
 11 14  2  0
 11 15  1  0
 12 16  2  0
 15 17  2  0
 15 18  1  0
 16 19  1  0
 17 20  1  0
 18 21  2  0
 19 22  1  0
 20 23  2  0
 22 24  1  0
 22 25  1  0
 23 26  1  0
 24 27  1  0
 25 28  1  0
 26 29  3  0
 27 30  1  0
 30 31  1  0
 31 32  1  0
 31 33  1  0
 32 34  1  0
 35 36  2  0
 36 37  1  0
  7 10  1  0
 13 16  1  0
 21 23  1  0
 28 30  1  0
 33 34  1  0
M  END
>  <MolRegNo>  (1) 
405758

>  <m>  (1) 
=

>  <Value>  (1) 
41000

>  <Unit>  (1) 
nM

>  <Type>  (1) 
IC50

>  <pValue>  (1) 
4.39

>  <Ligand Efficiency>  (1) 
0

>  <Binding Efficiency>  (1) 
0

>  <Surface Efficiency>  (1) 
0

>  <Assay Index>  (1) 
301708

>  <Assay Category>  (1) 


>  <Assay Organism>  (1) 
Homo sapiens

>  <Target ID>  (1) 
11365

>  <Target Name>  (1) 
Cytochrome P450 2D6

>  <Target Organism>  (1) 
Homo sapiens

>  <Target Description>  (1) 
Target is a single protein chain

>  <Sequence Accession>  (1) 
P10635

>  <Reference>  (1) 
J Med Chem 50 (26), 6706-6717 (2007)

>  <Pubmed ID>  (1) 
18052318

>  <DOI>  (1) 
10.1021/jm0708228

$$$$
