4wnv_ligand_418
     RDKit          2D

 37 41  0  0  1  0  0  0  0  0999 V2000
    0.0000   -0.0000   -0.0000 Cl  0  0  0  0  0  0  0  0  0  0  0  0
    1.1020   -1.0072   -0.0000 C   0  0  0  0  0  0  0  0  0  0  0  0
    2.5714   -0.6991   -0.0000 S   0  0  0  0  0  0  0  0  0  0  0  0
    0.9243   -2.4884   -0.0000 C   0  0  0  0  0  0  0  0  0  0  0  0
    3.3060   -2.0026   -0.0000 C   0  0  0  0  0  0  0  0  0  0  0  0
    2.2870   -3.1046   -0.0000 C   0  0  0  0  0  0  0  0  0  0  0  0
    4.7991   -2.1566   -0.0000 C   0  0  0  0  0  0  0  0  0  0  0  0
    5.8063   -1.0309   -0.0000 S   0  0  0  0  0  0  0  0  0  0  0  0
    5.5338   -3.4601   -0.0000 C   0  0  0  0  0  0  0  0  0  0  0  0
    7.1690   -1.6352   -0.0000 C   0  0  0  0  0  0  0  0  0  0  0  0
    7.0031   -3.1520   -0.0000 C   0  0  0  0  0  0  0  0  0  0  0  0
    8.4725   -0.8769   -0.0000 C   0  0  0  0  0  0  0  0  0  0  0  0
    9.7641   -1.6352   -0.0000 C   0  0  0  0  0  0  0  0  0  0  0  0
   11.0675   -0.8769   -0.0000 S   0  0  0  0  0  0  0  0  0  0  0  0
   10.4158    0.4977   -0.0000 O   0  0  0  0  0  0  0  0  0  0  0  0
   11.6955   -2.2277   -0.0000 O   0  0  0  0  0  0  0  0  0  0  0  0
   12.4658   -0.3318   -0.0000 N   0  0  0  0  0  0  0  0  0  0  0  0
   13.6270   -1.2679   -0.0000 C   0  0  0  0  0  0  0  0  0  0  0  0
   15.0253   -0.7228   -0.0000 C   0  0  0  0  0  0  0  0  0  0  0  0
   16.2695   -1.5404   -0.0000 C   0  0  0  0  0  0  0  0  0  0  0  0
   15.4045    0.7465   -0.0000 C   0  0  0  0  0  0  0  0  0  0  0  0
   17.4307   -0.5806   -0.0000 N   0  0  0  0  0  0  0  0  0  0  0  0
   16.8975    0.8295   -0.0000 C   0  0  0  0  0  0  0  0  0  0  0  0
   18.8764   -0.9598   -0.0000 C   0  0  0  0  0  0  0  0  0  0  0  0
   19.9310    0.1185   -0.0000 O   0  0  0  0  0  0  0  0  0  0  0  0
   19.2437   -2.4055   -0.0000 C   0  0  0  0  0  0  0  0  0  0  0  0
   18.1536   -3.4601   -0.0000 C   0  0  0  0  0  0  0  0  0  0  0  0
   20.6775   -2.7847   -0.0000 C   0  0  0  0  0  0  0  0  0  0  0  0
   18.5209   -4.9057   -0.0000 C   0  0  0  0  0  0  0  0  0  0  0  0
   21.0449   -4.2421   -0.0000 C   0  0  0  0  0  0  0  0  0  0  0  0
   19.9665   -5.2968   -0.0000 N   0  0  0  0  0  0  0  0  0  0  0  0
   20.3339   -6.7424   -0.0000 C   0  0  0  0  0  0  0  0  0  0  0  0
   19.2437   -7.7852   -0.0000 C   0  0  0  0  0  0  0  0  0  0  0  0
   21.7677   -7.1334   -0.0000 C   0  0  0  0  0  0  0  0  0  0  0  0
   19.6111   -9.2308   -0.0000 C   0  0  0  0  0  0  0  0  0  0  0  0
   22.1350   -8.5791   -0.0000 C   0  0  0  0  0  0  0  0  0  0  0  0
   21.0567   -9.6219   -0.0000 N   0  0  0  0  0  0  0  0  0  0  0  0
  1  2  1  0
  2  3  1  0
  2  4  2  0
  3  5  1  0
  4  6  1  0
  5  7  1  0
  7  8  1  0
  7  9  2  0
  8 10  1  0
  9 11  1  0
 10 12  1  0
 12 13  2  0
 13 14  1  0
 14 15  2  0
 14 16  2  0
 14 17  1  0
 17 18  1  0
 19 18  1  6
 19 20  1  0
 19 21  1  0
 20 22  1  0
 21 23  1  0
 22 24  1  0
 24 25  2  0
 24 26  1  0
 26 27  1  0
 26 28  1  0
 27 29  1  0
 28 30  1  0
 29 31  1  0
 31 32  1  0
 32 33  2  0
 32 34  1  0
 33 35  1  0
 34 36  2  0
 35 37  2  0
  5  6  2  0
 10 11  2  0
 22 23  1  0
 30 31  1  0
 36 37  1  0
M  END
>  <MolRegNo>  (1) 
416119

>  <m>  (1) 
=

>  <Value>  (1) 
7970

>  <Unit>  (1) 
nM

>  <Type>  (1) 
IC50

>  <pValue>  (1) 
5.1

>  <Ligand Efficiency>  (1) 
0

>  <Binding Efficiency>  (1) 
0

>  <Surface Efficiency>  (1) 
0

>  <Assay Index>  (1) 
306594

>  <Assay Category>  (1) 


>  <Assay Organism>  (1) 


>  <Target ID>  (1) 
11365

>  <Target Name>  (1) 
Cytochrome P450 2D6

>  <Target Organism>  (1) 
Homo sapiens

>  <Target Description>  (1) 
Target is a single protein chain

>  <Sequence Accession>  (1) 
P10635

>  <Reference>  (1) 
Bioorg Med Chem Lett 17 (21), 5952-5958 (2007)

>  <Pubmed ID>  (1) 
17855089

>  <DOI>  (1) 
10.1016/j.bmcl.2007.07.063

$$$$
