4wnv_ligand_643
     RDKit          2D

 40 44  0  0  0  0  0  0  0  0999 V2000
    0.0000   -0.0000   -0.0000 Cl  0  0  0  0  0  0  0  0  0  0  0  0
    1.2898    0.7691   -0.0000 C   0  0  0  0  0  0  0  0  0  0  0  0
    1.2780    2.2719   -0.0000 C   0  0  0  0  0  0  0  0  0  0  0  0
    2.5678    0.0473   -0.0000 C   0  0  0  0  0  0  0  0  0  0  0  0
   -0.0355    3.0411   -0.0000 Cl  0  0  0  0  0  0  0  0  0  0  0  0
    2.5559    3.0292   -0.0000 C   0  0  0  0  0  0  0  0  0  0  0  0
    3.8339    0.8046   -0.0000 C   0  0  0  0  0  0  0  0  0  0  0  0
    3.8339    2.2956   -0.0000 C   0  0  0  0  0  0  0  0  0  0  0  0
    5.1237    0.0592   -0.0000 O   0  0  0  0  0  0  0  0  0  0  0  0
    5.1237    3.0647   -0.0000 N   0  0  0  0  0  0  0  0  0  0  0  0
    6.4135    0.8165   -0.0000 C   0  0  0  0  0  0  0  0  0  0  0  0
    6.4135    2.3429   -0.0000 C   0  0  0  0  0  0  0  0  0  0  0  0
    5.1119    4.5794   -0.0000 C   0  0  0  0  0  0  0  0  0  0  0  0
    7.7033    3.1121   -0.0000 O   0  0  0  0  0  0  0  0  0  0  0  0
    6.4017    5.3485   -0.0000 C   0  0  0  0  0  0  0  0  0  0  0  0
    7.6915    4.6149   -0.0000 O   0  0  0  0  0  0  0  0  0  0  0  0
    6.3898    6.8631   -0.0000 N   0  0  0  0  0  0  0  0  0  0  0  0
    7.6915    7.6323   -0.0000 C   0  0  0  0  0  0  0  0  0  0  0  0
    5.0882    7.6205   -0.0000 C   0  0  0  0  0  0  0  0  0  0  0  0
    7.6796    9.1351   -0.0000 C   0  0  0  0  0  0  0  0  0  0  0  0
    8.9812    6.8986   -0.0000 C   0  0  0  0  0  0  0  0  0  0  0  0
    8.9694    9.8924   -0.0000 C   0  0  0  0  0  0  0  0  0  0  0  0
    6.3780    9.8806   -0.0000 C   0  0  0  0  0  0  0  0  0  0  0  0
   10.2710    7.6560   -0.0000 N   0  0  0  0  0  0  0  0  0  0  0  0
    8.9576   11.3952   -0.0000 C   0  0  0  0  0  0  0  0  0  0  0  0
    6.3662   11.3952   -0.0000 C   0  0  0  0  0  0  0  0  0  0  0  0
   11.5490    6.9105   -0.0000 C   0  0  0  0  0  0  0  0  0  0  0  0
   10.2474    9.1706   -0.0000 C   0  0  0  0  0  0  0  0  0  0  0  0
    7.6560   12.1643   -0.0000 C   0  0  0  0  0  0  0  0  0  0  0  0
   12.8388    7.6678   -0.0000 C   0  0  0  0  0  0  0  0  0  0  0  0
   11.5490    9.9279   -0.0000 C   0  0  0  0  0  0  0  0  0  0  0  0
    7.6441   13.6790   -0.0000 C   0  0  0  0  0  0  0  0  0  0  0  0
   12.8388    9.1824   -0.0000 O   0  0  0  0  0  0  0  0  0  0  0  0
    8.9339   14.4363   -0.0000 C   0  0  0  0  0  0  0  0  0  0  0  0
    6.3425   14.4363   -0.0000 C   0  0  0  0  0  0  0  0  0  0  0  0
    8.9221   15.9509   -0.0000 C   0  0  0  0  0  0  0  0  0  0  0  0
    6.3307   15.9509   -0.0000 C   0  0  0  0  0  0  0  0  0  0  0  0
   10.2119   16.7082   -0.0000 O   0  0  0  0  0  0  0  0  0  0  0  0
    7.6086   16.7200   -0.0000 C   0  0  0  0  0  0  0  0  0  0  0  0
   11.5017   15.9627   -0.0000 C   0  0  0  0  0  0  0  0  0  0  0  0
  1  2  1  0
  2  3  2  0
  2  4  1  0
  3  5  1  0
  3  6  1  0
  4  7  2  0
  6  8  2  0
  7  9  1  0
  8 10  1  0
  9 11  1  0
 10 12  1  0
 10 13  1  0
 12 14  2  0
 13 15  1  0
 15 16  2  0
 15 17  1  0
 17 18  1  0
 17 19  1  0
 18 20  1  0
 18 21  1  0
 20 22  2  0
 20 23  1  0
 21 24  1  0
 22 25  1  0
 23 26  2  0
 24 27  1  0
 24 28  1  0
 25 29  2  0
 27 30  1  0
 28 31  1  0
 29 32  1  0
 30 33  1  0
 32 34  2  0
 32 35  1  0
 34 36  1  0
 35 37  2  0
 36 38  1  0
 36 39  2  0
 38 40  1  0
  7  8  1  0
 11 12  1  0
 26 29  1  0
 31 33  1  0
 37 39  1  0
M  END
>  <MolRegNo>  (1) 
449394

>  <m>  (1) 
=

>  <Value>  (1) 
17000

>  <Unit>  (1) 
nM

>  <Type>  (1) 
IC50

>  <pValue>  (1) 
4.77

>  <Ligand Efficiency>  (1) 
0

>  <Binding Efficiency>  (1) 
0

>  <Surface Efficiency>  (1) 
0

>  <Assay Index>  (1) 
404069

>  <Assay Category>  (1) 


>  <Assay Organism>  (1) 


>  <Target ID>  (1) 
11365

>  <Target Name>  (1) 
Cytochrome P450 2D6

>  <Target Organism>  (1) 
Homo sapiens

>  <Target Description>  (1) 
Target is a single protein chain

>  <Sequence Accession>  (1) 
P10635

>  <Reference>  (1) 
Bioorg Med Chem Lett 18 (13), 3716-3719 (2008)

>  <Pubmed ID>  (1) 
18524591

>  <DOI>  (1) 
10.1016/j.bmcl.2008.05.058

$$$$
