4wnv_ligand_1021
     RDKit          2D

 36 40  0  0  0  0  0  0  0  0999 V2000
    0.0000   -0.0000   -0.0000 Cl  0  0  0  0  0  0  0  0  0  0  0  0
   -1.3090    0.7665   -0.0000 C   0  0  0  0  0  0  0  0  0  0  0  0
   -1.3208    2.2760   -0.0000 C   0  0  0  0  0  0  0  0  0  0  0  0
   -2.6180    0.0236   -0.0000 C   0  0  0  0  0  0  0  0  0  0  0  0
   -0.0354    3.0308   -0.0000 C   0  0  0  0  0  0  0  0  0  0  0  0
   -2.6298    3.0308   -0.0000 C   0  0  0  0  0  0  0  0  0  0  0  0
   -3.9152    0.7901   -0.0000 C   0  0  0  0  0  0  0  0  0  0  0  0
    1.2383    2.2996   -0.0000 N   0  0  0  0  0  0  0  0  0  0  0  0
   -0.0472    4.5403   -0.0000 C   0  0  0  0  0  0  0  0  0  0  0  0
   -3.9270    2.2996   -0.0000 C   0  0  0  0  0  0  0  0  0  0  0  0
   -5.2360    0.0472   -0.0000 Cl  0  0  0  0  0  0  0  0  0  0  0  0
    2.5237    3.0544   -0.0000 C   0  0  0  0  0  0  0  0  0  0  0  0
   -1.3562    5.3068   -0.0000 C   0  0  0  0  0  0  0  0  0  0  0  0
    1.2265    5.3068   -0.0000 C   0  0  0  0  0  0  0  0  0  0  0  0
    3.8091    2.3232   -0.0000 O   0  0  0  0  0  0  0  0  0  0  0  0
    2.5119    4.5639   -0.0000 C   0  0  0  0  0  0  0  0  0  0  0  0
   -2.6652    4.5639   -0.0000 C   0  0  0  0  0  0  0  0  0  0  0  0
   -1.3680    6.8163   -0.0000 C   0  0  0  0  0  0  0  0  0  0  0  0
    5.0945    3.0779   -0.0000 C   0  0  0  0  0  0  0  0  0  0  0  0
    3.7973    5.3304   -0.0000 C   0  0  0  0  0  0  0  0  0  0  0  0
   -3.9624    5.3304   -0.0000 C   0  0  0  0  0  0  0  0  0  0  0  0
   -2.6770    7.5710   -0.0000 C   0  0  0  0  0  0  0  0  0  0  0  0
    5.0827    4.5874   -0.0000 C   0  0  0  0  0  0  0  0  0  0  0  0
    6.5451    3.3610   -0.0000 C   0  0  0  0  0  0  0  0  0  0  0  0
    5.5898    1.6864   -0.0000 C   0  0  0  0  0  0  0  0  0  0  0  0
    3.7855    6.8399   -0.0000 N   0  0  0  0  0  0  0  0  0  0  0  0
   -3.9742    6.8399   -0.0000 C   0  0  0  0  0  0  0  0  0  0  0  0
    5.0709    7.5946   -0.0000 C   0  0  0  0  0  0  0  0  0  0  0  0
   -5.2950    7.5946   -0.0000 Cl  0  0  0  0  0  0  0  0  0  0  0  0
    6.3446    6.8635   -0.0000 O   0  0  0  0  0  0  0  0  0  0  0  0
    5.0592    9.1041   -0.0000 C   0  0  0  0  0  0  0  0  0  0  0  0
    3.8327   10.0004   -0.0000 N   0  0  0  0  0  0  0  0  0  0  0  0
    6.2502   10.0004   -0.0000 C   0  0  0  0  0  0  0  0  0  0  0  0
    4.2808   11.4391   -0.0000 N   0  0  0  0  0  0  0  0  0  0  0  0
    5.7785   11.4391   -0.0000 C   0  0  0  0  0  0  0  0  0  0  0  0
    6.6512   12.6656   -0.0000 C   0  0  0  0  0  0  0  0  0  0  0  0
  1  2  1  0
  2  3  2  0
  2  4  1  0
  3  5  1  0
  3  6  1  0
  4  7  2  0
  5  8  2  0
  5  9  1  0
  6 10  2  0
  7 11  1  0
  8 12  1  0
  9 13  1  0
  9 14  2  0
 12 15  1  0
 12 16  2  0
 13 17  2  0
 13 18  1  0
 15 19  1  0
 16 20  1  0
 17 21  1  0
 18 22  2  0
 19 23  1  0
 19 24  1  0
 19 25  1  0
 20 26  1  1
 21 27  2  0
 26 28  1  0
 27 29  1  0
 28 30  2  0
 28 31  1  0
 31 32  2  0
 31 33  1  0
 32 34  1  0
 33 35  2  0
 35 36  1  0
  7 10  1  0
 14 16  1  0
 20 23  1  0
 22 27  1  0
 34 35  1  0
M  END
>  <MolRegNo>  (1) 
627910

>  <m>  (1) 
=

>  <Value>  (1) 
6000

>  <Unit>  (1) 
nM

>  <Type>  (1) 
IC50

>  <pValue>  (1) 
5.22

>  <Ligand Efficiency>  (1) 
0

>  <Binding Efficiency>  (1) 
0

>  <Surface Efficiency>  (1) 
0

>  <Assay Index>  (1) 
476445

>  <Assay Category>  (1) 


>  <Assay Organism>  (1) 


>  <Target ID>  (1) 
11365

>  <Target Name>  (1) 
Cytochrome P450 2D6

>  <Target Organism>  (1) 
Homo sapiens

>  <Target Description>  (1) 
Target is a single protein chain

>  <Sequence Accession>  (1) 
P10635

>  <Reference>  (1) 
J Med Chem 53 (10), 4028-4037 (2010)

>  <Pubmed ID>  (1) 
20423086

>  <DOI>  (1) 
10.1021/jm100023j

$$$$
