4wnv_ligand_404
     RDKit          2D

 21 23  0  0  1  0  0  0  0  0999 V2000
    0.0000   -0.0000   -0.0000 Cl  0  0  0  0  0  0  0  0  0  0  0  0
    1.2874    0.7559   -0.0000 C   0  0  0  0  0  0  0  0  0  0  0  0
    1.2756    2.2677   -0.0000 C   0  0  0  0  0  0  0  0  0  0  0  0
    2.5748    0.0236   -0.0000 C   0  0  0  0  0  0  0  0  0  0  0  0
    2.5512    3.0236   -0.0000 C   0  0  0  0  0  0  0  0  0  0  0  0
   -0.0354    3.0236   -0.0000 C   0  0  0  0  0  0  0  0  0  0  0  0
    3.8622    0.7795   -0.0000 C   0  0  0  0  0  0  0  0  0  0  0  0
    2.5630   -1.4646   -0.0000 C   0  0  0  0  0  0  0  0  0  0  0  0
    3.8386    2.2913   -0.0000 C   0  0  0  0  0  0  0  0  0  0  0  0
   -0.0472    4.5354   -0.0000 N   0  0  0  0  0  0  0  0  0  0  0  0
   -1.3583    5.2913   -0.0000 C   0  0  0  0  0  0  0  0  0  0  0  0
    1.2402    5.2913   -0.0000 C   0  0  0  0  0  0  0  0  0  0  0  0
   -1.3701    6.8031   -0.0000 C   0  0  0  0  0  0  0  0  0  0  0  0
   -2.6575    4.5472   -0.0000 C   0  0  0  0  0  0  0  0  0  0  0  0
    1.3819    6.7913   -0.0000 C   0  0  0  0  0  0  0  0  0  0  0  0
    2.5984    4.6890   -0.0000 C   0  0  0  0  0  0  0  0  0  0  0  0
   -2.6693    7.5591   -0.0000 C   0  0  0  0  0  0  0  0  0  0  0  0
   -3.9685    5.3150   -0.0000 C   0  0  0  0  0  0  0  0  0  0  0  0
    2.8346    7.1102   -0.0000 N   0  0  0  0  0  0  0  0  0  0  0  0
    3.5906    5.8110   -0.0000 C   0  0  0  0  0  0  0  0  0  0  0  0
   -3.9803    6.8268   -0.0000 O   0  0  0  0  0  0  0  0  0  0  0  0
  1  2  1  0
  2  3  2  0
  2  4  1  0
  3  5  1  0
  3  6  1  0
  4  7  2  0
  4  8  1  0
  5  9  2  0
  6 10  1  0
 10 11  1  0
 12 10  1  6
 11 13  1  0
 11 14  1  0
 12 15  1  0
 12 16  1  0
 13 17  1  0
 14 18  1  0
 15 19  1  0
 16 20  1  0
 17 21  1  0
  7  9  1  0
 18 21  1  0
 19 20  1  0
M  END
>  <MolRegNo>  (1) 
412784

>  <m>  (1) 
=

>  <Value>  (1) 
15700

>  <Unit>  (1) 
nM

>  <Type>  (1) 
IC50

>  <pValue>  (1) 
4.8

>  <Ligand Efficiency>  (1) 
0

>  <Binding Efficiency>  (1) 
0

>  <Surface Efficiency>  (1) 
0

>  <Assay Index>  (1) 
303145

>  <Assay Category>  (1) 


>  <Assay Organism>  (1) 
Homo sapiens

>  <Target ID>  (1) 
11365

>  <Target Name>  (1) 
Cytochrome P450 2D6

>  <Target Organism>  (1) 
Homo sapiens

>  <Target Description>  (1) 
Target is a single protein chain

>  <Sequence Accession>  (1) 
P10635

>  <Reference>  (1) 
Bioorg Med Chem Lett 17 (7), 2022-2025 (2007)

>  <Pubmed ID>  (1) 
17267217

>  <DOI>  (1) 
10.1016/j.bmcl.2007.01.020

$$$$
