4wnv_ligand_724
     RDKit          2D

 28 31  0  0  0  0  0  0  0  0999 V2000
    0.0000   -0.0000   -0.0000 Cl  0  0  0  0  0  0  0  0  0  0  0  0
   -0.0119    1.5117   -0.0000 C   0  0  0  0  0  0  0  0  0  0  0  0
    1.2856    2.2735   -0.0000 C   0  0  0  0  0  0  0  0  0  0  0  0
   -1.3213    2.2735   -0.0000 C   0  0  0  0  0  0  0  0  0  0  0  0
    2.5711    1.5355   -0.0000 N   0  0  0  0  0  0  0  0  0  0  0  0
    1.2737    3.7972   -0.0000 C   0  0  0  0  0  0  0  0  0  0  0  0
   -1.3332    3.7853   -0.0000 C   0  0  0  0  0  0  0  0  0  0  0  0
    3.8567    2.2973   -0.0000 C   0  0  0  0  0  0  0  0  0  0  0  0
   -0.0357    4.5590   -0.0000 C   0  0  0  0  0  0  0  0  0  0  0  0
    5.1422    1.5593   -0.0000 N   0  0  0  0  0  0  0  0  0  0  0  0
    3.8329    3.8091   -0.0000 C   0  0  0  0  0  0  0  0  0  0  0  0
   -0.0476    6.0707   -0.0000 Cl  0  0  0  0  0  0  0  0  0  0  0  0
    6.4278    2.3212   -0.0000 C   0  0  0  0  0  0  0  0  0  0  0  0
    5.1184    4.5709   -0.0000 C   0  0  0  0  0  0  0  0  0  0  0  0
    6.4159    3.8329   -0.0000 C   0  0  0  0  0  0  0  0  0  0  0  0
    5.0946    6.0826   -0.0000 C   0  0  0  0  0  0  0  0  0  0  0  0
    7.7015    4.5947   -0.0000 C   0  0  0  0  0  0  0  0  0  0  0  0
    5.8207    7.3920   -0.0000 C   0  0  0  0  0  0  0  0  0  0  0  0
    4.3209    7.3920   -0.0000 C   0  0  0  0  0  0  0  0  0  0  0  0
    7.6896    6.1064   -0.0000 O   0  0  0  0  0  0  0  0  0  0  0  0
    8.9870    3.8567   -0.0000 N   0  0  0  0  0  0  0  0  0  0  0  0
   10.2726    4.6185   -0.0000 C   0  0  0  0  0  0  0  0  0  0  0  0
   11.5582    3.8805   -0.0000 C   0  0  0  0  0  0  0  0  0  0  0  0
   11.5463    2.3926   -0.0000 C   0  0  0  0  0  0  0  0  0  0  0  0
   12.8318    4.6542   -0.0000 C   0  0  0  0  0  0  0  0  0  0  0  0
   12.8318    1.6546   -0.0000 C   0  0  0  0  0  0  0  0  0  0  0  0
   14.1174    3.9162   -0.0000 C   0  0  0  0  0  0  0  0  0  0  0  0
   14.1174    2.4164   -0.0000 O   0  0  0  0  0  0  0  0  0  0  0  0
  1  2  1  0
  2  3  2  0
  2  4  1  0
  3  5  1  0
  3  6  1  0
  4  7  2  0
  5  8  1  0
  6  9  2  0
  8 10  2  0
  8 11  1  0
  9 12  1  0
 10 13  1  0
 11 14  2  0
 13 15  2  0
 14 16  1  0
 15 17  1  0
 16 18  1  0
 16 19  1  0
 17 20  2  0
 17 21  1  0
 21 22  1  0
 22 23  1  0
 23 24  1  0
 23 25  1  0
 24 26  1  0
 25 27  1  0
 26 28  1  0
  7  9  1  0
 14 15  1  0
 18 19  1  0
 27 28  1  0
M  END
>  <MolRegNo>  (1) 
473020

>  <m>  (1) 
=

>  <Value>  (1) 
42000

>  <Unit>  (1) 
nM

>  <Type>  (1) 
IC50

>  <pValue>  (1) 
4.38

>  <Ligand Efficiency>  (1) 
0

>  <Binding Efficiency>  (1) 
0

>  <Surface Efficiency>  (1) 
0

>  <Assay Index>  (1) 
409031

>  <Assay Category>  (1) 


>  <Assay Organism>  (1) 


>  <Target ID>  (1) 
11365

>  <Target Name>  (1) 
Cytochrome P450 2D6

>  <Target Organism>  (1) 
Homo sapiens

>  <Target Description>  (1) 
Target is a single protein chain

>  <Sequence Accession>  (1) 
P10635

>  <Reference>  (1) 
Bioorg Med Chem Lett 19 (1), 259-263 (2009)

>  <Pubmed ID>  (1) 
19010671

>  <DOI>  (1) 
10.1016/j.bmcl.2008.10.118

$$$$
