4wnv_ligand_408
     RDKit          2D

 22 24  0  0  1  0  0  0  0  0999 V2000
    0.0000   -0.0000   -0.0000 Cl  0  0  0  0  0  0  0  0  0  0  0  0
    1.2951    0.7604   -0.0000 C   0  0  0  0  0  0  0  0  0  0  0  0
    2.5783    0.0238   -0.0000 C   0  0  0  0  0  0  0  0  0  0  0  0
    1.2832    2.2694   -0.0000 C   0  0  0  0  0  0  0  0  0  0  0  0
    2.5664   -1.4614   -0.0000 Cl  0  0  0  0  0  0  0  0  0  0  0  0
    3.8734    0.7842   -0.0000 C   0  0  0  0  0  0  0  0  0  0  0  0
    2.5664    3.0298   -0.0000 C   0  0  0  0  0  0  0  0  0  0  0  0
   -0.0238    3.0298   -0.0000 C   0  0  0  0  0  0  0  0  0  0  0  0
    3.8615    2.3050   -0.0000 C   0  0  0  0  0  0  0  0  0  0  0  0
   -0.0356    4.5388   -0.0000 N   0  0  0  0  0  0  0  0  0  0  0  0
    1.2476    5.2992   -0.0000 C   0  0  0  0  0  0  0  0  0  0  0  0
   -1.3426    5.2992   -0.0000 C   0  0  0  0  0  0  0  0  0  0  0  0
    1.3901    6.8081   -0.0000 C   0  0  0  0  0  0  0  0  0  0  0  0
    2.6021    4.7051   -0.0000 C   0  0  0  0  0  0  0  0  0  0  0  0
   -2.6496    4.5625   -0.0000 C   0  0  0  0  0  0  0  0  0  0  0  0
    2.8516    7.1289   -0.0000 N   0  0  0  0  0  0  0  0  0  0  0  0
    3.6001    5.8339   -0.0000 C   0  0  0  0  0  0  0  0  0  0  0  0
   -3.9566    5.3348   -0.0000 N   0  0  0  0  0  0  0  0  0  0  0  0
   -2.6615    3.0773   -0.0000 C   0  0  0  0  0  0  0  0  0  0  0  0
   -5.2635    4.5982   -0.0000 C   0  0  0  0  0  0  0  0  0  0  0  0
   -3.9684    2.3407   -0.0000 C   0  0  0  0  0  0  0  0  0  0  0  0
   -5.2754    3.1130   -0.0000 C   0  0  0  0  0  0  0  0  0  0  0  0
  1  2  1  0
  2  3  2  0
  2  4  1  0
  3  5  1  0
  3  6  1  0
  4  7  2  0
  4  8  1  0
  6  9  2  0
  8 10  1  0
 11 10  1  6
 10 12  1  0
 11 13  1  0
 11 14  1  0
 12 15  1  0
 13 16  1  0
 14 17  1  0
 15 18  2  0
 15 19  1  0
 18 20  1  0
 19 21  2  0
 20 22  2  0
  7  9  1  0
 16 17  1  0
 21 22  1  0
M  END
>  <MolRegNo>  (1) 
412773

>  <m>  (1) 
=

>  <Value>  (1) 
100

>  <Unit>  (1) 
nM

>  <Type>  (1) 
IC50

>  <pValue>  (1) 
7

>  <Ligand Efficiency>  (1) 
0

>  <Binding Efficiency>  (1) 
0

>  <Surface Efficiency>  (1) 
0

>  <Assay Index>  (1) 
303145

>  <Assay Category>  (1) 


>  <Assay Organism>  (1) 
Homo sapiens

>  <Target ID>  (1) 
11365

>  <Target Name>  (1) 
Cytochrome P450 2D6

>  <Target Organism>  (1) 
Homo sapiens

>  <Target Description>  (1) 
Target is a single protein chain

>  <Sequence Accession>  (1) 
P10635

>  <Reference>  (1) 
Bioorg Med Chem Lett 17 (7), 2022-2025 (2007)

>  <Pubmed ID>  (1) 
17267217

>  <DOI>  (1) 
10.1016/j.bmcl.2007.01.020

$$$$
