4wnv_ligand_147
     RDKit          2D

 23 25  0  0  0  0  0  0  0  0999 V2000
    0.0000   -0.0000   -0.0000 Cl  0  0  0  0  0  0  0  0  0  0  0  0
    1.4526   -0.3070   -0.0000 C   0  0  0  0  0  0  0  0  0  0  0  0
    2.4446    0.8267   -0.0000 C   0  0  0  0  0  0  0  0  0  0  0  0
    1.9131   -1.7242   -0.0000 C   0  0  0  0  0  0  0  0  0  0  0  0
    3.8971    0.5196   -0.0000 C   0  0  0  0  0  0  0  0  0  0  0  0
    1.9604    2.2674   -0.0000 C   0  0  0  0  0  0  0  0  0  0  0  0
    3.3657   -2.0194   -0.0000 C   0  0  0  0  0  0  0  0  0  0  0  0
    4.3459   -0.8975   -0.0000 C   0  0  0  0  0  0  0  0  0  0  0  0
    2.9524    3.3893   -0.0000 N   0  0  0  0  0  0  0  0  0  0  0  0
    2.6217    4.8655   -0.0000 C   0  0  0  0  0  0  0  0  0  0  0  0
    4.4404    3.2358   -0.0000 C   0  0  0  0  0  0  0  0  0  0  0  0
    3.9089    5.6331   -0.0000 C   0  0  0  0  0  0  0  0  0  0  0  0
    1.3109    5.6331   -0.0000 C   0  0  0  0  0  0  0  0  0  0  0  0
    5.0308    4.6175   -0.0000 C   0  0  0  0  0  0  0  0  0  0  0  0
    5.1844    1.9486   -0.0000 C   0  0  0  0  0  0  0  0  0  0  0  0
    3.8971    7.1447   -0.0000 C   0  0  0  0  0  0  0  0  0  0  0  0
    1.2990    7.1447   -0.0000 C   0  0  0  0  0  0  0  0  0  0  0  0
    6.4952    4.9482   -0.0000 C   0  0  0  0  0  0  0  0  0  0  0  0
    2.5863    7.9005   -0.0000 C   0  0  0  0  0  0  0  0  0  0  0  0
    7.5344    3.8971   -0.0000 C   0  0  0  0  0  0  0  0  0  0  0  0
    2.5745    9.4122   -0.0000 S   0  0  0  0  0  0  0  0  0  0  0  0
    8.9752    4.2986   -0.0000 N   0  0  0  0  0  0  0  0  0  0  0  0
    1.2636   10.1680   -0.0000 C   0  0  0  0  0  0  0  0  0  0  0  0
  1  2  1  0
  2  3  2  0
  2  4  1  0
  3  5  1  0
  3  6  1  0
  4  7  2  0
  5  8  2  0
  6  9  1  0
  9 10  1  0
  9 11  1  0
 10 12  2  0
 10 13  1  0
 11 14  2  0
 11 15  1  0
 12 16  1  0
 13 17  2  0
 14 18  1  0
 16 19  2  0
 18 20  1  0
 19 21  1  0
 20 22  1  0
 21 23  1  0
  7  8  1  0
 12 14  1  0
 17 19  1  0
M  END
>  <MolRegNo>  (1) 
314034

>  <m>  (1) 
=

>  <Value>  (1) 
3500

>  <Unit>  (1) 
nM

>  <Type>  (1) 
IC50

>  <pValue>  (1) 
5.46

>  <Ligand Efficiency>  (1) 
0

>  <Binding Efficiency>  (1) 
0

>  <Surface Efficiency>  (1) 
0

>  <Assay Index>  (1) 
237541

>  <Assay Category>  (1) 


>  <Assay Organism>  (1) 


>  <Target ID>  (1) 
11365

>  <Target Name>  (1) 
Cytochrome P450 2D6

>  <Target Organism>  (1) 
Homo sapiens

>  <Target Description>  (1) 
Target is a single protein chain

>  <Sequence Accession>  (1) 
P10635

>  <Reference>  (1) 
J Med Chem 47 (22), 5340-5346 (2004)

>  <Pubmed ID>  (1) 
15481972

>  <DOI>  (1) 
10.1021/jm049934e

$$$$
