4wnv_ligand_288
     RDKit          2D

 43 46  0  0  1  0  0  0  0  0999 V2000
    0.0000   -0.0000   -0.0000 S   0  0  0  0  0  0  0  0  0  0  0  0
   -0.7680   -1.2961   -0.0000 O   0  0  0  0  0  0  0  0  0  0  0  0
    0.7440    1.3201   -0.0000 O   0  0  0  0  0  0  0  0  0  0  0  0
    1.2961   -0.7440   -0.0000 C   0  0  0  0  0  0  0  0  0  0  0  0
   -1.3201    0.7680   -0.0000 C   0  0  0  0  0  0  0  0  0  0  0  0
    2.6041    0.0240   -0.0000 C   0  0  0  0  0  0  0  0  0  0  0  0
    1.2841   -2.2441   -0.0000 C   0  0  0  0  0  0  0  0  0  0  0  0
    3.8882   -0.7200   -0.0000 C   0  0  0  0  0  0  0  0  0  0  0  0
    2.5921   -2.9882   -0.0000 C   0  0  0  0  0  0  0  0  0  0  0  0
    3.8762   -2.2321   -0.0000 C   0  0  0  0  0  0  0  0  0  0  0  0
    5.1723   -2.9762   -0.0000 C   0  0  0  0  0  0  0  0  0  0  0  0
    5.1603   -4.4763   -0.0000 C   0  0  0  0  0  0  0  0  0  0  0  0
    6.4684   -2.2081   -0.0000 C   0  0  0  0  0  0  0  0  0  0  0  0
    3.8402   -5.2203   -0.0000 C   0  0  0  0  0  0  0  0  0  0  0  0
    6.4564   -5.2083   -0.0000 C   0  0  0  0  0  0  0  0  0  0  0  0
    7.7644   -2.9522   -0.0000 C   0  0  0  0  0  0  0  0  0  0  0  0
    3.8522   -6.7204   -0.0000 C   0  0  0  0  0  0  0  0  0  0  0  0
    6.4564   -6.7084   -0.0000 C   0  0  0  0  0  0  0  0  0  0  0  0
    9.0605   -2.1841   -0.0000 N   0  0  0  0  0  0  0  0  0  0  0  0
    2.5441   -7.4764   -0.0000 F   0  0  0  0  0  0  0  0  0  0  0  0
    5.1483   -7.4524   -0.0000 C   0  0  0  0  0  0  0  0  0  0  0  0
    7.7524   -7.4404   -0.0000 F   0  0  0  0  0  0  0  0  0  0  0  0
   10.3446   -2.9162   -0.0000 C   0  0  0  0  0  0  0  0  0  0  0  0
    9.0485   -0.6480   -0.0000 C   0  0  0  0  0  0  0  0  0  0  0  0
   11.6287   -2.1601   -0.0000 C   0  0  0  0  0  0  0  0  0  0  0  0
   10.3326    0.1080   -0.0000 C   0  0  0  0  0  0  0  0  0  0  0  0
   11.6287   -0.6480   -0.0000 C   0  0  0  0  0  0  0  0  0  0  0  0
   12.9247    0.1200   -0.0000 N   0  0  0  0  0  0  0  0  0  0  0  0
   14.2208   -0.6240   -0.0000 C   0  0  0  0  0  0  0  0  0  0  0  0
   12.9127    1.6321   -0.0000 C   0  0  0  0  0  0  0  0  0  0  0  0
   14.2088   -2.1241   -0.0000 O   0  0  0  0  0  0  0  0  0  0  0  0
   15.5049    0.1440   -0.0000 C   0  0  0  0  0  0  0  0  0  0  0  0
   14.2088    2.4001   -0.0000 C   0  0  0  0  0  0  0  0  0  0  0  0
   16.8010   -0.6000   -0.0000 C   0  0  0  0  0  0  0  0  0  0  0  0
   16.7770   -2.1001   -0.0000 C   0  0  0  0  0  0  0  0  0  0  0  0
   18.0730    0.1560   -0.0000 C   0  0  0  0  0  0  0  0  0  0  0  0
   18.0610   -2.8322   -0.0000 C   0  0  0  0  0  0  0  0  0  0  0  0
   19.3571   -0.5640   -0.0000 C   0  0  0  0  0  0  0  0  0  0  0  0
   19.3451   -2.0521   -0.0000 C   0  0  0  0  0  0  0  0  0  0  0  0
   20.6412   -2.7962   -0.0000 S   0  0  0  0  0  0  0  0  0  0  0  0
   19.8731   -4.0922   -0.0000 O   0  0  0  0  0  0  0  0  0  0  0  0
   21.3852   -1.4761   -0.0000 O   0  0  0  0  0  0  0  0  0  0  0  0
   21.9373   -3.5402   -0.0000 C   0  0  0  0  0  0  0  0  0  0  0  0
  1  2  2  0
  1  3  2  0
  1  4  1  0
  1  5  1  0
  4  6  2  0
  4  7  1  0
  6  8  1  0
  7  9  2  0
  8 10  2  0
 10 11  1  0
 11 12  1  0
 11 13  1  1
 12 14  2  0
 12 15  1  0
 13 16  1  0
 14 17  1  0
 15 18  2  0
 16 19  1  0
 17 20  1  0
 17 21  2  0
 18 22  1  0
 19 23  1  0
 19 24  1  0
 23 25  1  0
 24 26  1  0
 25 27  1  0
 27 28  1  0
 28 29  1  0
 28 30  1  0
 29 31  2  0
 29 32  1  0
 30 33  1  0
 32 34  1  0
 34 35  2  0
 34 36  1  0
 35 37  1  0
 36 38  2  0
 37 39  2  0
 39 40  1  0
 40 41  2  0
 40 42  2  0
 40 43  1  0
  9 10  1  0
 18 21  1  0
 26 27  1  0
 38 39  1  0
M  END
>  <MolRegNo>  (1) 
351014

>  <m>  (1) 
=

>  <Value>  (1) 
1600

>  <Unit>  (1) 
nM

>  <Type>  (1) 
IC50

>  <pValue>  (1) 
5.8

>  <Ligand Efficiency>  (1) 
0

>  <Binding Efficiency>  (1) 
0

>  <Surface Efficiency>  (1) 
0

>  <Assay Index>  (1) 
264765

>  <Assay Category>  (1) 


>  <Assay Organism>  (1) 
Homo sapiens

>  <Target ID>  (1) 
11365

>  <Target Name>  (1) 
Cytochrome P450 2D6

>  <Target Organism>  (1) 
Homo sapiens

>  <Target Description>  (1) 
Target is a single protein chain

>  <Sequence Accession>  (1) 
P10635

>  <Reference>  (1) 
Bioorg Med Chem Lett 16 (13), 3533-3536 (2006)

>  <Pubmed ID>  (1) 
16631366

>  <DOI>  (1) 
10.1016/j.bmcl.2006.03.089

$$$$
