4wnv_ligand_871
     RDKit          2D

 32 36  0  0  0  0  0  0  0  0999 V2000
    0.0000   -0.0000   -0.0000 O   0  0  0  0  0  0  0  0  0  0  0  0
    0.7483   -1.2947   -0.0000 C   0  0  0  0  0  0  0  0  0  0  0  0
    0.7483    1.3185   -0.0000 C   0  0  0  0  0  0  0  0  0  0  0  0
    2.2449   -1.2828   -0.0000 C   0  0  0  0  0  0  0  0  0  0  0  0
    2.2449    1.3303   -0.0000 C   0  0  0  0  0  0  0  0  0  0  0  0
    2.9814    0.0356   -0.0000 C   0  0  0  0  0  0  0  0  0  0  0  0
    4.4780    0.0475   -0.0000 C   0  0  0  0  0  0  0  0  0  0  0  0
    5.2263   -1.2472   -0.0000 N   0  0  0  0  0  0  0  0  0  0  0  0
    6.7229   -1.2353   -0.0000 C   0  0  0  0  0  0  0  0  0  0  0  0
    7.4594   -2.5300   -0.0000 C   0  0  0  0  0  0  0  0  0  0  0  0
    7.4594    0.0831   -0.0000 C   0  0  0  0  0  0  0  0  0  0  0  0
    8.9560   -2.5181   -0.0000 C   0  0  0  0  0  0  0  0  0  0  0  0
    8.9560    0.0950   -0.0000 C   0  0  0  0  0  0  0  0  0  0  0  0
    9.7043   -1.1997   -0.0000 N   0  0  0  0  0  0  0  0  0  0  0  0
   11.2009   -1.1878   -0.0000 C   0  0  0  0  0  0  0  0  0  0  0  0
   12.0799    0.0475   -0.0000 N   0  0  0  0  0  0  0  0  0  0  0  0
   12.0799   -2.3993   -0.0000 N   0  0  0  0  0  0  0  0  0  0  0  0
   13.5052   -0.4039   -0.0000 C   0  0  0  0  0  0  0  0  0  0  0  0
   13.5052   -1.9242   -0.0000 C   0  0  0  0  0  0  0  0  0  0  0  0
   11.6048   -3.8247   -0.0000 C   0  0  0  0  0  0  0  0  0  0  0  0
   14.7999    0.3682   -0.0000 C   0  0  0  0  0  0  0  0  0  0  0  0
   14.7999   -2.6725   -0.0000 C   0  0  0  0  0  0  0  0  0  0  0  0
   12.6025   -4.9294   -0.0000 C   0  0  0  0  0  0  0  0  0  0  0  0
   16.0946   -0.3801   -0.0000 C   0  0  0  0  0  0  0  0  0  0  0  0
   16.0946   -1.9005   -0.0000 C   0  0  0  0  0  0  0  0  0  0  0  0
   12.1274   -6.3547   -0.0000 C   0  0  0  0  0  0  0  0  0  0  0  0
   14.0635   -4.6086   -0.0000 C   0  0  0  0  0  0  0  0  0  0  0  0
   13.1251   -7.4594   -0.0000 C   0  0  0  0  0  0  0  0  0  0  0  0
   15.0613   -5.7133   -0.0000 C   0  0  0  0  0  0  0  0  0  0  0  0
   14.5861   -7.1387   -0.0000 C   0  0  0  0  0  0  0  0  0  0  0  0
   15.5839   -8.2433   -0.0000 O   0  0  0  0  0  0  0  0  0  0  0  0
   17.0449   -7.9226   -0.0000 C   0  0  0  0  0  0  0  0  0  0  0  0
  1  2  1  0
  1  3  1  0
  2  4  1  0
  3  5  1  0
  4  6  1  0
  6  7  1  0
  7  8  1  0
  8  9  1  0
  9 10  1  0
  9 11  1  0
 10 12  1  0
 11 13  1  0
 12 14  1  0
 14 15  1  0
 15 16  2  0
 15 17  1  0
 16 18  1  0
 17 19  1  0
 17 20  1  0
 18 21  2  0
 19 22  2  0
 20 23  1  0
 21 24  1  0
 22 25  1  0
 23 26  2  0
 23 27  1  0
 26 28  1  0
 27 29  2  0
 28 30  2  0
 30 31  1  0
 31 32  1  0
  5  6  1  0
 13 14  1  0
 18 19  1  0
 24 25  2  0
 29 30  1  0
M  END
>  <MolRegNo>  (1) 
561162

>  <m>  (1) 
=

>  <Value>  (1) 
16309

>  <Unit>  (1) 
nM

>  <Type>  (1) 
IC50

>  <pValue>  (1) 
4.79

>  <Ligand Efficiency>  (1) 
0

>  <Binding Efficiency>  (1) 
0

>  <Surface Efficiency>  (1) 
0

>  <Assay Index>  (1) 
429822

>  <Assay Category>  (1) 


>  <Assay Organism>  (1) 


>  <Target ID>  (1) 
11365

>  <Target Name>  (1) 
Cytochrome P450 2D6

>  <Target Organism>  (1) 
Homo sapiens

>  <Target Description>  (1) 
Target is a single protein chain

>  <Sequence Accession>  (1) 
P10635

>  <Reference>  (1) 
Bioorg Med Chem Lett 19 (15), 4380-4384 (2009)

>  <Pubmed ID>  (1) 
19553115

>  <DOI>  (1) 
10.1016/j.bmcl.2009.05.086

$$$$
