4wnv_ligand_874
     RDKit          2D

 29 32  0  0  0  0  0  0  0  0999 V2000
    0.0000   -0.0000   -0.0000 F   0  0  0  0  0  0  0  0  0  0  0  0
   -1.0116    1.1175   -0.0000 C   0  0  0  0  0  0  0  0  0  0  0  0
   -2.4820    0.8234   -0.0000 C   0  0  0  0  0  0  0  0  0  0  0  0
   -0.5646    2.5526   -0.0000 C   0  0  0  0  0  0  0  0  0  0  0  0
   -3.4936    1.9409   -0.0000 C   0  0  0  0  0  0  0  0  0  0  0  0
   -1.5762    3.6700   -0.0000 C   0  0  0  0  0  0  0  0  0  0  0  0
   -3.0466    3.3760   -0.0000 C   0  0  0  0  0  0  0  0  0  0  0  0
   -4.0582    4.4935   -0.0000 C   0  0  0  0  0  0  0  0  0  0  0  0
   -3.6112    5.9285   -0.0000 N   0  0  0  0  0  0  0  0  0  0  0  0
   -4.5052    7.1519   -0.0000 C   0  0  0  0  0  0  0  0  0  0  0  0
   -2.1997    6.3991   -0.0000 C   0  0  0  0  0  0  0  0  0  0  0  0
   -3.6348    8.3752   -0.0000 N   0  0  0  0  0  0  0  0  0  0  0  0
   -6.0109    7.1637   -0.0000 N   0  0  0  0  0  0  0  0  0  0  0  0
   -2.2114    7.9047   -0.0000 C   0  0  0  0  0  0  0  0  0  0  0  0
   -0.9175    5.6698   -0.0000 C   0  0  0  0  0  0  0  0  0  0  0  0
   -6.7637    5.8815   -0.0000 C   0  0  0  0  0  0  0  0  0  0  0  0
   -6.7637    8.4693   -0.0000 C   0  0  0  0  0  0  0  0  0  0  0  0
   -0.9293    8.6576   -0.0000 C   0  0  0  0  0  0  0  0  0  0  0  0
    0.3647    6.4226   -0.0000 C   0  0  0  0  0  0  0  0  0  0  0  0
   -8.2694    5.8933   -0.0000 C   0  0  0  0  0  0  0  0  0  0  0  0
   -8.2694    8.4811   -0.0000 C   0  0  0  0  0  0  0  0  0  0  0  0
    0.3529    7.9282   -0.0000 C   0  0  0  0  0  0  0  0  0  0  0  0
   -9.0222    7.1989   -0.0000 C   0  0  0  0  0  0  0  0  0  0  0  0
  -10.5279    7.2107   -0.0000 N   0  0  0  0  0  0  0  0  0  0  0  0
  -11.2807    8.5164   -0.0000 C   0  0  0  0  0  0  0  0  0  0  0  0
  -11.2807    5.9285   -0.0000 C   0  0  0  0  0  0  0  0  0  0  0  0
  -12.7864    8.5282   -0.0000 C   0  0  0  0  0  0  0  0  0  0  0  0
  -13.5392    9.8338   -0.0000 O   0  0  0  0  0  0  0  0  0  0  0  0
  -15.0448    9.8456   -0.0000 C   0  0  0  0  0  0  0  0  0  0  0  0
  1  2  1  0
  2  3  2  0
  2  4  1  0
  3  5  1  0
  4  6  2  0
  5  7  2  0
  7  8  1  0
  8  9  1  0
  9 10  1  0
  9 11  1  0
 10 12  2  0
 10 13  1  0
 11 14  2  0
 11 15  1  0
 13 16  1  0
 13 17  1  0
 14 18  1  0
 15 19  2  0
 16 20  1  0
 17 21  1  0
 18 22  2  0
 20 23  1  0
 23 24  1  0
 24 25  1  0
 24 26  1  0
 25 27  1  0
 27 28  1  0
 28 29  1  0
  6  7  1  0
 12 14  1  0
 19 22  1  0
 21 23  1  0
M  END
>  <MolRegNo>  (1) 
564651

>  <m>  (1) 
=

>  <Value>  (1) 
4444

>  <Unit>  (1) 
nM

>  <Type>  (1) 
IC50

>  <pValue>  (1) 
5.35

>  <Ligand Efficiency>  (1) 
0

>  <Binding Efficiency>  (1) 
0

>  <Surface Efficiency>  (1) 
0

>  <Assay Index>  (1) 
429822

>  <Assay Category>  (1) 


>  <Assay Organism>  (1) 


>  <Target ID>  (1) 
11365

>  <Target Name>  (1) 
Cytochrome P450 2D6

>  <Target Organism>  (1) 
Homo sapiens

>  <Target Description>  (1) 
Target is a single protein chain

>  <Sequence Accession>  (1) 
P10635

>  <Reference>  (1) 
Bioorg Med Chem Lett 19 (15), 4380-4384 (2009)

>  <Pubmed ID>  (1) 
19553115

>  <DOI>  (1) 
10.1016/j.bmcl.2009.05.086

$$$$
