4wnv_ligand_1011
     RDKit          2D

 23 25  0  0  0  0  0  0  0  0999 V2000
    0.0000   -0.0000   -0.0000 S   0  0  0  0  0  0  0  0  0  0  0  0
   -1.4551   -0.4532   -0.0000 C   0  0  0  0  0  0  0  0  0  0  0  0
    0.8826   -1.2046   -0.0000 C   0  0  0  0  0  0  0  0  0  0  0  0
   -1.4551   -1.9560   -0.0000 C   0  0  0  0  0  0  0  0  0  0  0  0
   -2.7670    0.2982   -0.0000 C   0  0  0  0  0  0  0  0  0  0  0  0
   -0.0119   -2.4330   -0.0000 C   0  0  0  0  0  0  0  0  0  0  0  0
    2.3734   -1.1927   -0.0000 C   0  0  0  0  0  0  0  0  0  0  0  0
   -2.7670   -2.6954   -0.0000 C   0  0  0  0  0  0  0  0  0  0  0  0
   -4.0670   -0.4413   -0.0000 C   0  0  0  0  0  0  0  0  0  0  0  0
    0.2982   -3.8881   -0.0000 C   0  0  0  0  0  0  0  0  0  0  0  0
    3.1129   -2.4807   -0.0000 C   0  0  0  0  0  0  0  0  0  0  0  0
   -4.0789   -1.9321   -0.0000 C   0  0  0  0  0  0  0  0  0  0  0  0
   -1.0018   -4.6514   -0.0000 C   0  0  0  0  0  0  0  0  0  0  0  0
    1.6817   -4.4129   -0.0000 C   0  0  0  0  0  0  0  0  0  0  0  0
    4.6037   -2.4688   -0.0000 N   0  0  0  0  0  0  0  0  0  0  0  0
   -2.3138   -3.9119   -0.0000 N   0  0  0  0  0  0  0  0  0  0  0  0
   -0.9899   -6.1303   -0.0000 C   0  0  0  0  0  0  0  0  0  0  0  0
    5.3431   -3.7569   -0.0000 C   0  0  0  0  0  0  0  0  0  0  0  0
    5.3431   -1.1569   -0.0000 C   0  0  0  0  0  0  0  0  0  0  0  0
   -3.6138   -4.6633   -0.0000 C   0  0  0  0  0  0  0  0  0  0  0  0
    0.3101   -6.8459   -0.0000 F   0  0  0  0  0  0  0  0  0  0  0  0
   -2.2899   -6.8936   -0.0000 C   0  0  0  0  0  0  0  0  0  0  0  0
   -3.6138   -6.1541   -0.0000 C   0  0  0  0  0  0  0  0  0  0  0  0
  1  2  1  0
  1  3  1  0
  2  4  2  0
  2  5  1  0
  3  6  2  0
  3  7  1  0
  4  8  1  0
  5  9  2  0
  6 10  1  0
  7 11  1  0
  8 12  2  0
 10 13  1  0
 10 14  1  6
 11 15  1  0
 13 16  2  0
 13 17  1  0
 15 18  1  0
 15 19  1  0
 16 20  1  0
 17 21  1  0
 17 22  2  0
 20 23  2  0
  4  6  1  0
  9 12  1  0
 22 23  1  0
M  END
>  <MolRegNo>  (1) 
620076

>  <m>  (1) 
=

>  <Value>  (1) 
4000

>  <Unit>  (1) 
nM

>  <Type>  (1) 
IC50

>  <pValue>  (1) 
5.4

>  <Ligand Efficiency>  (1) 
0

>  <Binding Efficiency>  (1) 
0

>  <Surface Efficiency>  (1) 
0

>  <Assay Index>  (1) 
469728

>  <Assay Category>  (1) 


>  <Assay Organism>  (1) 


>  <Target ID>  (1) 
11365

>  <Target Name>  (1) 
Cytochrome P450 2D6

>  <Target Organism>  (1) 
Homo sapiens

>  <Target Description>  (1) 
Target is a single protein chain

>  <Sequence Accession>  (1) 
P10635

>  <Reference>  (1) 
Bioorg Med Chem Lett 20 (7), 2316-2320 (2010)

>  <Pubmed ID>  (1) 
20188547

>  <DOI>  (1) 
10.1016/j.bmcl.2010.01.134

$$$$
