4wnv_ligand_994
     RDKit          2D

 22 24  0  0  0  0  0  0  0  0999 V2000
    0.0000   -0.0000   -0.0000 Cl  0  0  0  0  0  0  0  0  0  0  0  0
    1.0060   -1.1018   -0.0000 C   0  0  0  0  0  0  0  0  0  0  0  0
    2.4671   -0.7665   -0.0000 C   0  0  0  0  0  0  0  0  0  0  0  0
    0.5269   -2.5270   -0.0000 C   0  0  0  0  0  0  0  0  0  0  0  0
    3.4731   -1.8683   -0.0000 C   0  0  0  0  0  0  0  0  0  0  0  0
    1.5329   -3.6288   -0.0000 C   0  0  0  0  0  0  0  0  0  0  0  0
    2.9940   -3.3054   -0.0000 C   0  0  0  0  0  0  0  0  0  0  0  0
    4.9821   -1.8443   -0.0000 C   0  0  0  0  0  0  0  0  0  0  0  0
    4.2156   -4.1797   -0.0000 C   0  0  0  0  0  0  0  0  0  0  0  0
    5.4491   -3.2815   -0.0000 C   0  0  0  0  0  0  0  0  0  0  0  0
    4.2156   -5.6767   -0.0000 C   0  0  0  0  0  0  0  0  0  0  0  0
    6.8743   -3.7246   -0.0000 C   0  0  0  0  0  0  0  0  0  0  0  0
    5.5330   -6.3593   -0.0000 C   0  0  0  0  0  0  0  0  0  0  0  0
    7.9761   -2.6946   -0.0000 C   0  0  0  0  0  0  0  0  0  0  0  0
    6.7905   -5.5449   -0.0000 N   0  0  0  0  0  0  0  0  0  0  0  0
    5.5689   -7.8563   -0.0000 C   0  0  0  0  0  0  0  0  0  0  0  0
    9.4013   -3.1377   -0.0000 N   0  0  0  0  0  0  0  0  0  0  0  0
    8.1078   -6.2396   -0.0000 N   0  0  0  0  0  0  0  0  0  0  0  0
    6.8863   -8.5510   -0.0000 C   0  0  0  0  0  0  0  0  0  0  0  0
   10.5031   -2.1078   -0.0000 C   0  0  0  0  0  0  0  0  0  0  0  0
    9.7126   -4.5988   -0.0000 C   0  0  0  0  0  0  0  0  0  0  0  0
    8.1557   -7.7486   -0.0000 C   0  0  0  0  0  0  0  0  0  0  0  0
  1  2  1  0
  2  3  2  0
  2  4  1  0
  3  5  1  0
  4  6  2  0
  5  7  2  0
  5  8  1  0
  7  9  1  0
  8 10  1  0
  9 11  1  0
 10 12  1  0
 11 13  1  0
 12 14  1  0
 13 15  2  0
 13 16  1  0
 14 17  1  0
 15 18  1  0
 16 19  2  0
 17 20  1  0
 17 21  1  0
 18 22  2  0
  6  7  1  0
  9 10  2  0
 19 22  1  0
M  END
>  <MolRegNo>  (1) 
621091

>  <m>  (1) 
=

>  <Value>  (1) 
12000

>  <Unit>  (1) 
nM

>  <Type>  (1) 
IC50

>  <pValue>  (1) 
4.92

>  <Ligand Efficiency>  (1) 
0

>  <Binding Efficiency>  (1) 
0

>  <Surface Efficiency>  (1) 
0

>  <Assay Index>  (1) 
470598

>  <Assay Category>  (1) 


>  <Assay Organism>  (1) 


>  <Target ID>  (1) 
11365

>  <Target Name>  (1) 
Cytochrome P450 2D6

>  <Target Organism>  (1) 
Homo sapiens

>  <Target Description>  (1) 
Target is a single protein chain

>  <Sequence Accession>  (1) 
P10635

>  <Reference>  (1) 
Bioorg Med Chem Lett 20 (8), 2629-2633 (2010)

>  <Pubmed ID>  (1) 
20227880

>  <DOI>  (1) 
10.1016/j.bmcl.2010.02.055

$$$$
