4wnv_ligand_921
     RDKit          2D

 29 31  0  0  0  0  0  0  0  0999 V2000
    0.0000   -0.0000   -0.0000 Cl  0  0  0  0  0  0  0  0  0  0  0  0
   -0.0119    1.5091   -0.0000 C   0  0  0  0  0  0  0  0  0  0  0  0
   -1.3189    2.2695   -0.0000 C   0  0  0  0  0  0  0  0  0  0  0  0
    1.2833    2.2695   -0.0000 C   0  0  0  0  0  0  0  0  0  0  0  0
   -2.6260    1.5328   -0.0000 C   0  0  0  0  0  0  0  0  0  0  0  0
   -1.3308    3.7905   -0.0000 C   0  0  0  0  0  0  0  0  0  0  0  0
    1.2714    3.7905   -0.0000 C   0  0  0  0  0  0  0  0  0  0  0  0
   -3.9331    0.7961   -0.0000 N   0  0  0  0  0  0  0  0  0  0  0  0
   -0.0475    4.5510   -0.0000 C   0  0  0  0  0  0  0  0  0  0  0  0
    2.5547    4.5510   -0.0000 N   0  0  0  0  0  0  0  0  0  0  0  0
    3.8380    3.8142   -0.0000 C   0  0  0  0  0  0  0  0  0  0  0  0
    2.5428    6.0600   -0.0000 C   0  0  0  0  0  0  0  0  0  0  0  0
    3.9925    2.3289   -0.0000 C   0  0  0  0  0  0  0  0  0  0  0  0
    5.2045    4.4321   -0.0000 C   0  0  0  0  0  0  0  0  0  0  0  0
    3.8261    6.8205   -0.0000 C   0  0  0  0  0  0  0  0  0  0  0  0
    5.4421    2.0319   -0.0000 N   0  0  0  0  0  0  0  0  0  0  0  0
    6.2026    3.3390   -0.0000 C   0  0  0  0  0  0  0  0  0  0  0  0
    3.8024    8.3177   -0.0000 C   0  0  0  0  0  0  0  0  0  0  0  0
    5.1094    6.0838   -0.0000 C   0  0  0  0  0  0  0  0  0  0  0  0
    6.0363    0.6773   -0.0000 C   0  0  0  0  0  0  0  0  0  0  0  0
    5.0738    9.0900   -0.0000 C   0  0  0  0  0  0  0  0  0  0  0  0
    2.4834    9.0663   -0.0000 C   0  0  0  0  0  0  0  0  0  0  0  0
    6.3927    6.8443   -0.0000 C   0  0  0  0  0  0  0  0  0  0  0  0
    5.1451   -0.5228   -0.0000 O   0  0  0  0  0  0  0  0  0  0  0  0
    7.5215    0.5347   -0.0000 C   0  0  0  0  0  0  0  0  0  0  0  0
    6.3690    8.3533   -0.0000 C   0  0  0  0  0  0  0  0  0  0  0  0
    2.4597   10.5753   -0.0000 F   0  0  0  0  0  0  0  0  0  0  0  0
    1.1764    8.3177   -0.0000 F   0  0  0  0  0  0  0  0  0  0  0  0
    1.1645    9.8386   -0.0000 F   0  0  0  0  0  0  0  0  0  0  0  0
  1  2  1  0
  2  3  2  0
  2  4  1  0
  3  5  1  0
  3  6  1  0
  4  7  2  0
  5  8  3  0
  6  9  2  0
  7 10  1  0
 11 10  1  1
 10 12  1  0
 11 13  1  0
 11 14  1  0
 12 15  1  0
 13 16  1  0
 14 17  1  0
 15 18  2  0
 15 19  1  0
 16 20  1  0
 18 21  1  0
 18 22  1  0
 19 23  2  0
 20 24  2  0
 20 25  1  0
 21 26  2  0
 22 27  1  0
 22 28  1  0
 22 29  1  0
  7  9  1  0
 16 17  1  0
 23 26  1  0
M  END
>  <MolRegNo>  (1) 
590229

>  <m>  (1) 
=

>  <Value>  (1) 
17000

>  <Unit>  (1) 
nM

>  <Type>  (1) 
IC50

>  <pValue>  (1) 
4.77

>  <Ligand Efficiency>  (1) 
0

>  <Binding Efficiency>  (1) 
0

>  <Surface Efficiency>  (1) 
0

>  <Assay Index>  (1) 
452357

>  <Assay Category>  (1) 


>  <Assay Organism>  (1) 


>  <Target ID>  (1) 
11365

>  <Target Name>  (1) 
Cytochrome P450 2D6

>  <Target Organism>  (1) 
Homo sapiens

>  <Target Description>  (1) 
Target is a single protein chain

>  <Sequence Accession>  (1) 
P10635

>  <Reference>  (1) 
Bioorg Med Chem Lett 20 (1), 371-374 (2010)

>  <Pubmed ID>  (1) 
19926282

>  <DOI>  (1) 
10.1016/j.bmcl.2009.10.092

$$$$
