4wnv_ligand_973
     RDKit          2D

 28 31  0  0  0  0  0  0  0  0999 V2000
    0.0000   -0.0000   -0.0000 S   0  0  0  0  0  0  0  0  0  0  0  0
   -0.7814    1.3142   -0.0000 O   0  0  0  0  0  0  0  0  0  0  0  0
    0.7222    1.3142   -0.0000 O   0  0  0  0  0  0  0  0  0  0  0  0
   -1.3142   -0.7341   -0.0000 C   0  0  0  0  0  0  0  0  0  0  0  0
    1.2905   -0.7341   -0.0000 C   0  0  0  0  0  0  0  0  0  0  0  0
   -1.3142   -2.2140   -0.0000 C   0  0  0  0  0  0  0  0  0  0  0  0
   -2.6284    0.0355   -0.0000 C   0  0  0  0  0  0  0  0  0  0  0  0
    2.5810    0.0237   -0.0000 C   0  0  0  0  0  0  0  0  0  0  0  0
   -2.6166   -2.9599   -0.0000 N   0  0  0  0  0  0  0  0  0  0  0  0
   -3.9426   -0.6985   -0.0000 C   0  0  0  0  0  0  0  0  0  0  0  0
    3.8716   -0.7104   -0.0000 C   0  0  0  0  0  0  0  0  0  0  0  0
    2.5692    1.5392   -0.0000 C   0  0  0  0  0  0  0  0  0  0  0  0
   -3.9426   -2.2022   -0.0000 C   0  0  0  0  0  0  0  0  0  0  0  0
    5.1502    0.0592   -0.0000 C   0  0  0  0  0  0  0  0  0  0  0  0
    3.8597    2.2969   -0.0000 C   0  0  0  0  0  0  0  0  0  0  0  0
   -5.2450   -2.9481   -0.0000 C   0  0  0  0  0  0  0  0  0  0  0  0
    5.1384    1.5747   -0.0000 C   0  0  0  0  0  0  0  0  0  0  0  0
    6.2987   -0.8643   -0.0000 C   0  0  0  0  0  0  0  0  0  0  0  0
   -6.5592   -2.1785   -0.0000 C   0  0  0  0  0  0  0  0  0  0  0  0
   -5.2568   -4.4280   -0.0000 C   0  0  0  0  0  0  0  0  0  0  0  0
    6.2987    2.5100   -0.0000 C   0  0  0  0  0  0  0  0  0  0  0  0
    7.7431   -0.5209   -0.0000 C   0  0  0  0  0  0  0  0  0  0  0  0
   -7.8733   -2.9125   -0.0000 C   0  0  0  0  0  0  0  0  0  0  0  0
   -6.5592   -5.1739   -0.0000 C   0  0  0  0  0  0  0  0  0  0  0  0
    7.7431    2.1903   -0.0000 C   0  0  0  0  0  0  0  0  0  0  0  0
    8.3825    0.8406   -0.0000 N   0  0  0  0  0  0  0  0  0  0  0  0
   -7.8852   -4.4043   -0.0000 C   0  0  0  0  0  0  0  0  0  0  0  0
   -9.1994   -5.1502   -0.0000 F   0  0  0  0  0  0  0  0  0  0  0  0
  1  2  2  0
  1  3  2  0
  1  4  1  0
  1  5  1  0
  4  6  2  0
  4  7  1  0
  5  8  1  0
  6  9  1  0
  7 10  2  0
  8 11  2  0
  8 12  1  0
  9 13  2  0
 11 14  1  0
 12 15  2  0
 13 16  1  0
 14 17  2  0
 14 18  1  0
 16 19  2  0
 16 20  1  0
 17 21  1  0
 18 22  1  0
 19 23  1  0
 20 24  2  0
 21 25  1  0
 22 26  1  0
 23 27  2  0
 27 28  1  0
 10 13  1  0
 15 17  1  0
 24 27  1  0
 25 26  1  0
M  END
>  <MolRegNo>  (1) 
617685

>  <m>  (1) 
=

>  <Value>  (1) 
600

>  <Unit>  (1) 
nM

>  <Type>  (1) 
IC50

>  <pValue>  (1) 
6.22

>  <Ligand Efficiency>  (1) 
0

>  <Binding Efficiency>  (1) 
0

>  <Surface Efficiency>  (1) 
0

>  <Assay Index>  (1) 
468007

>  <Assay Category>  (1) 


>  <Assay Organism>  (1) 
Homo sapiens

>  <Target ID>  (1) 
11365

>  <Target Name>  (1) 
Cytochrome P450 2D6

>  <Target Organism>  (1) 
Homo sapiens

>  <Target Description>  (1) 
Target is a single protein chain

>  <Sequence Accession>  (1) 
P10635

>  <Reference>  (1) 
Bioorg Med Chem Lett 19 (22), 6452-6458 (2009)

>  <Pubmed ID>  (1) 
19804969

>  <DOI>  (1) 
10.1016/j.bmcl.2009.09.027

$$$$
