4wnv_ligand_549
     RDKit          2D

 34 37  0  0  0  0  0  0  0  0999 V2000
    0.0000   -0.0000   -0.0000 Cl  0  0  0  0  0  0  0  0  0  0  0  0
    1.2940   -0.7360   -0.0000 C   0  0  0  0  0  0  0  0  0  0  0  0
    1.2821   -2.2319   -0.0000 C   0  0  0  0  0  0  0  0  0  0  0  0
    2.5761    0.0237   -0.0000 C   0  0  0  0  0  0  0  0  0  0  0  0
   -0.0356   -2.9679   -0.0000 Cl  0  0  0  0  0  0  0  0  0  0  0  0
    2.5643   -2.9679   -0.0000 C   0  0  0  0  0  0  0  0  0  0  0  0
    3.8701   -0.7123   -0.0000 C   0  0  0  0  0  0  0  0  0  0  0  0
    3.8583   -2.2081   -0.0000 C   0  0  0  0  0  0  0  0  0  0  0  0
    5.1523    0.0594   -0.0000 N   0  0  0  0  0  0  0  0  0  0  0  0
    5.1285    1.5789   -0.0000 C   0  0  0  0  0  0  0  0  0  0  0  0
    6.4463   -0.6767   -0.0000 C   0  0  0  0  0  0  0  0  0  0  0  0
    3.8108    2.3387   -0.0000 C   0  0  0  0  0  0  0  0  0  0  0  0
    7.7284    0.0950   -0.0000 C   0  0  0  0  0  0  0  0  0  0  0  0
    2.4930    3.0985   -0.0000 N   0  0  0  0  0  0  0  0  0  0  0  0
    9.0224   -0.6411   -0.0000 O   0  0  0  0  0  0  0  0  0  0  0  0
    7.7046    1.6145   -0.0000 N   0  0  0  0  0  0  0  0  0  0  0  0
    8.9986    2.3743   -0.0000 C   0  0  0  0  0  0  0  0  0  0  0  0
    6.3869    2.3624   -0.0000 C   0  0  0  0  0  0  0  0  0  0  0  0
    8.9868    3.8820   -0.0000 C   0  0  0  0  0  0  0  0  0  0  0  0
    9.9009    1.1990   -0.0000 C   0  0  0  0  0  0  0  0  0  0  0  0
    6.3750    3.8820   -0.0000 C   0  0  0  0  0  0  0  0  0  0  0  0
   10.2808    4.6418   -0.0000 C   0  0  0  0  0  0  0  0  0  0  0  0
    7.6690    4.6418   -0.0000 C   0  0  0  0  0  0  0  0  0  0  0  0
   11.3730    1.4127   -0.0000 N   0  0  0  0  0  0  0  0  0  0  0  0
   11.5748    3.9057   -0.0000 C   0  0  0  0  0  0  0  0  0  0  0  0
   10.2689    6.1495   -0.0000 C   0  0  0  0  0  0  0  0  0  0  0  0
   12.2633    0.2256   -0.0000 C   0  0  0  0  0  0  0  0  0  0  0  0
   11.9191    2.8136   -0.0000 C   0  0  0  0  0  0  0  0  0  0  0  0
   12.8569    4.6655   -0.0000 C   0  0  0  0  0  0  0  0  0  0  0  0
   11.5510    6.9211   -0.0000 C   0  0  0  0  0  0  0  0  0  0  0  0
   13.7354    0.4274   -0.0000 C   0  0  0  0  0  0  0  0  0  0  0  0
   13.4030    3.0154   -0.0000 C   0  0  0  0  0  0  0  0  0  0  0  0
   12.8450    6.1851   -0.0000 C   0  0  0  0  0  0  0  0  0  0  0  0
   14.3052    1.8282   -0.0000 O   0  0  0  0  0  0  0  0  0  0  0  0
  1  2  1  0
  2  3  2  0
  2  4  1  0
  3  5  1  0
  3  6  1  0
  4  7  2  0
  6  8  2  0
  7  9  1  0
  9 10  1  0
  9 11  1  0
 10 12  1  0
 11 13  1  0
 12 14  3  0
 13 15  2  0
 13 16  1  0
 16 17  1  0
 16 18  1  0
 17 19  1  0
 17 20  1  0
 18 21  1  0
 19 22  1  0
 19 23  1  0
 20 24  1  0
 22 25  2  0
 22 26  1  0
 24 27  1  0
 24 28  1  0
 25 29  1  0
 26 30  2  0
 27 31  1  0
 28 32  1  0
 29 33  2  0
 31 34  1  0
  7  8  1  0
 21 23  1  0
 30 33  1  0
 32 34  1  0
M  END
>  <MolRegNo>  (1) 
426960

>  <m>  (1) 
=

>  <Value>  (1) 
3700

>  <Unit>  (1) 
nM

>  <Type>  (1) 
IC50

>  <pValue>  (1) 
5.43

>  <Ligand Efficiency>  (1) 
0

>  <Binding Efficiency>  (1) 
0

>  <Surface Efficiency>  (1) 
0

>  <Assay Index>  (1) 
328211

>  <Assay Category>  (1) 


>  <Assay Organism>  (1) 


>  <Target ID>  (1) 
11365

>  <Target Name>  (1) 
Cytochrome P450 2D6

>  <Target Organism>  (1) 
Homo sapiens

>  <Target Description>  (1) 
Target is a single protein chain

>  <Sequence Accession>  (1) 
P10635

>  <Reference>  (1) 
Bioorg Med Chem Lett 18 (12), 3500-3503 (2008)

>  <Pubmed ID>  (1) 
18502123

>  <DOI>  (1) 
10.1016/j.bmcl.2008.05.027

$$$$
