4wnv_ligand_75
     RDKit          2D

 21 23  0  0  0  0  0  0  0  0999 V2000
    0.0000   -0.0000   -0.0000 O   0  0  0  0  0  0  0  0  0  0  0  0
    1.2636    0.7794   -0.0000 C   0  0  0  0  0  0  0  0  0  0  0  0
   -1.3227    0.7440   -0.0000 C   0  0  0  0  0  0  0  0  0  0  0  0
    2.5745    0.0472   -0.0000 C   0  0  0  0  0  0  0  0  0  0  0  0
    1.2282    2.2910   -0.0000 C   0  0  0  0  0  0  0  0  0  0  0  0
   -2.6335   -0.0118   -0.0000 C   0  0  0  0  0  0  0  0  0  0  0  0
    3.8499    0.8267   -0.0000 C   0  0  0  0  0  0  0  0  0  0  0  0
    2.5154    3.0587   -0.0000 C   0  0  0  0  0  0  0  0  0  0  0  0
   -3.9444    0.7322   -0.0000 C   0  0  0  0  0  0  0  0  0  0  0  0
    3.8145    2.3265   -0.0000 C   0  0  0  0  0  0  0  0  0  0  0  0
   -5.2552   -0.0236   -0.0000 C   0  0  0  0  0  0  0  0  0  0  0  0
    5.0781    3.1059   -0.0000 N   0  0  0  0  0  0  0  0  0  0  0  0
   -6.5661    0.7322   -0.0000 C   0  0  0  0  0  0  0  0  0  0  0  0
   -5.2434   -1.4998   -0.0000 C   0  0  0  0  0  0  0  0  0  0  0  0
    5.2080    4.6175   -0.0000 C   0  0  0  0  0  0  0  0  0  0  0  0
    6.4480    2.5272   -0.0000 C   0  0  0  0  0  0  0  0  0  0  0  0
   -7.8651   -0.0236   -0.0000 C   0  0  0  0  0  0  0  0  0  0  0  0
   -6.5306   -2.2556   -0.0000 C   0  0  0  0  0  0  0  0  0  0  0  0
    6.6606    4.9600   -0.0000 N   0  0  0  0  0  0  0  0  0  0  0  0
    7.4164    3.6609   -0.0000 C   0  0  0  0  0  0  0  0  0  0  0  0
   -7.8533   -1.5116   -0.0000 N   0  0  0  0  0  0  0  0  0  0  0  0
  1  2  1  0
  1  3  1  0
  2  4  2  0
  2  5  1  0
  3  6  1  0
  4  7  1  0
  5  8  2  0
  6  9  1  0
  7 10  2  0
  9 11  1  0
 10 12  1  0
 11 13  2  0
 11 14  1  0
 12 15  1  0
 12 16  1  0
 13 17  1  0
 14 18  2  0
 15 19  2  0
 16 20  2  0
 17 21  2  0
  8 10  1  0
 18 21  1  0
 19 20  1  0
M  END
>  <MolRegNo>  (1) 
185953

>  <m>  (1) 
=

>  <Value>  (1) 
1040

>  <Unit>  (1) 
nM

>  <Type>  (1) 
IC50

>  <pValue>  (1) 
5.98

>  <Ligand Efficiency>  (1) 
0

>  <Binding Efficiency>  (1) 
0

>  <Surface Efficiency>  (1) 
0

>  <Assay Index>  (1) 
51639

>  <Assay Category>  (1) 


>  <Assay Organism>  (1) 
Homo sapiens

>  <Target ID>  (1) 
11365

>  <Target Name>  (1) 
Cytochrome P450 2D6

>  <Target Organism>  (1) 
Homo sapiens

>  <Target Description>  (1) 
Target is a single protein chain

>  <Sequence Accession>  (1) 
P10635

>  <Reference>  (1) 
Bioorg Med Chem Lett 14 (2), 333-336 (2004)

>  <Pubmed ID>  (1) 
14698153

>  <DOI>  (1) 
10.1016/j.bmcl.2003.11.005

$$$$
