4wnv_ligand_384
     RDKit          2D

 46 50  0  0  1  0  0  0  0  0999 V2000
    0.0000   -0.0000   -0.0000 F   0  0  0  0  0  0  0  0  0  0  0  0
   -0.0119    1.5127   -0.0000 C   0  0  0  0  0  0  0  0  0  0  0  0
    1.2864    2.2869   -0.0000 C   0  0  0  0  0  0  0  0  0  0  0  0
   -1.3221    2.2869   -0.0000 C   0  0  0  0  0  0  0  0  0  0  0  0
    1.2745    3.7995   -0.0000 C   0  0  0  0  0  0  0  0  0  0  0  0
   -1.3221    3.7995   -0.0000 C   0  0  0  0  0  0  0  0  0  0  0  0
   -0.0357    4.5618   -0.0000 C   0  0  0  0  0  0  0  0  0  0  0  0
    2.5608    4.5618   -0.0000 C   0  0  0  0  0  0  0  0  0  0  0  0
   -0.0476    6.0745   -0.0000 C   0  0  0  0  0  0  0  0  0  0  0  0
    0.1072    7.5872   -0.0000 C   0  0  0  0  0  0  0  0  0  0  0  0
   -1.5246    5.7886   -0.0000 C   0  0  0  0  0  0  0  0  0  0  0  0
    1.4055    8.3614   -0.0000 C   0  0  0  0  0  0  0  0  0  0  0  0
   -1.2745    8.2065   -0.0000 C   0  0  0  0  0  0  0  0  0  0  0  0
   -2.2869    7.1107   -0.0000 N   0  0  0  0  0  0  0  0  0  0  0  0
    1.5484    9.8859   -0.0000 N   0  0  0  0  0  0  0  0  0  0  0  0
    2.7752    7.7658   -0.0000 N   0  0  0  0  0  0  0  0  0  0  0  0
   -3.7995    7.2894   -0.0000 C   0  0  0  0  0  0  0  0  0  0  0  0
    3.0134   10.2194   -0.0000 O   0  0  0  0  0  0  0  0  0  0  0  0
    3.7757    8.9092   -0.0000 C   0  0  0  0  0  0  0  0  0  0  0  0
   -4.4189    8.6829   -0.0000 O   0  0  0  0  0  0  0  0  0  0  0  0
   -4.6928    6.0983   -0.0000 C   0  0  0  0  0  0  0  0  0  0  0  0
    5.2526    8.7663   -0.0000 C   0  0  0  0  0  0  0  0  0  0  0  0
   -6.1936    6.2770   -0.0000 C   0  0  0  0  0  0  0  0  0  0  0  0
   -4.0973    4.7405   -0.0000 C   0  0  0  0  0  0  0  0  0  0  0  0
    6.7415    8.7782   -0.0000 C   0  0  0  0  0  0  0  0  0  0  0  0
    5.1693    7.2894   -0.0000 C   0  0  0  0  0  0  0  0  0  0  0  0
    5.3122   10.2671   -0.0000 C   0  0  0  0  0  0  0  0  0  0  0  0
   -7.0869    5.0859   -0.0000 C   0  0  0  0  0  0  0  0  0  0  0  0
   -5.0025    3.5494   -0.0000 C   0  0  0  0  0  0  0  0  0  0  0  0
    7.4680   10.0765   -0.0000 C   0  0  0  0  0  0  0  0  0  0  0  0
    7.4800    7.4919   -0.0000 C   0  0  0  0  0  0  0  0  0  0  0  0
   -6.5033    3.7281   -0.0000 N   0  0  0  0  0  0  0  0  0  0  0  0
    8.9450   10.1003   -0.0000 C   0  0  0  0  0  0  0  0  0  0  0  0
    8.9569    7.5038   -0.0000 C   0  0  0  0  0  0  0  0  0  0  0  0
   -7.3966    2.5370   -0.0000 C   0  0  0  0  0  0  0  0  0  0  0  0
    9.6954    8.8140   -0.0000 C   0  0  0  0  0  0  0  0  0  0  0  0
    9.6715   11.4105   -0.0000 C   0  0  0  0  0  0  0  0  0  0  0  0
    9.6954    6.2174   -0.0000 C   0  0  0  0  0  0  0  0  0  0  0  0
   -8.8973    2.7157   -0.0000 O   0  0  0  0  0  0  0  0  0  0  0  0
   -6.8130    1.1792   -0.0000 C   0  0  0  0  0  0  0  0  0  0  0  0
   10.3981   12.7207   -0.0000 F   0  0  0  0  0  0  0  0  0  0  0  0
   10.9579   10.6840   -0.0000 F   0  0  0  0  0  0  0  0  0  0  0  0
    8.3614   12.1609   -0.0000 F   0  0  0  0  0  0  0  0  0  0  0  0
   10.4219    4.9430   -0.0000 F   0  0  0  0  0  0  0  0  0  0  0  0
   10.9817    6.9797   -0.0000 F   0  0  0  0  0  0  0  0  0  0  0  0
    8.3971    5.4790   -0.0000 F   0  0  0  0  0  0  0  0  0  0  0  0
  1  2  1  0
  2  3  2  0
  2  4  1  0
  3  5  1  0
  4  6  2  0
  5  7  2  0
  5  8  1  0
  9  7  1  1
  9 10  1  0
  9 11  1  0
 10 12  1  6
 10 13  1  0
 11 14  1  0
 12 15  2  0
 12 16  1  0
 14 17  1  0
 15 18  1  0
 16 19  2  0
 17 20  2  0
 17 21  1  0
 19 22  1  0
 21 23  1  0
 21 24  1  0
 22 25  1  0
 22 26  1  0
 22 27  1  0
 23 28  1  0
 24 29  1  0
 25 30  2  0
 25 31  1  0
 28 32  1  0
 30 33  1  0
 31 34  2  0
 32 35  1  0
 33 36  2  0
 33 37  1  0
 34 38  1  0
 35 39  2  0
 35 40  1  0
 37 41  1  0
 37 42  1  0
 37 43  1  0
 38 44  1  0
 38 45  1  0
 38 46  1  0
  6  7  1  0
 13 14  1  0
 18 19  1  0
 29 32  1  0
 34 36  1  0
M  END
>  <MolRegNo>  (1) 
399389

>  <m>  (1) 
=

>  <Value>  (1) 
63000

>  <Unit>  (1) 
nM

>  <Type>  (1) 
IC50

>  <pValue>  (1) 
4.2

>  <Ligand Efficiency>  (1) 
0

>  <Binding Efficiency>  (1) 
0

>  <Surface Efficiency>  (1) 
0

>  <Assay Index>  (1) 
297939

>  <Assay Category>  (1) 


>  <Assay Organism>  (1) 
Homo sapiens

>  <Target ID>  (1) 
11365

>  <Target Name>  (1) 
Cytochrome P450 2D6

>  <Target Organism>  (1) 
Homo sapiens

>  <Target Description>  (1) 
Target is a single protein chain

>  <Sequence Accession>  (1) 
P10635

>  <Reference>  (1) 
Bioorg Med Chem Lett 17 (19), 5310-5315 (2007)

>  <Pubmed ID>  (1) 
17723300

>  <DOI>  (1) 
10.1016/j.bmcl.2007.08.028

$$$$
