4wnv_ligand_899
     RDKit          2D

 22 24  0  0  0  0  0  0  0  0999 V2000
    0.0000   -0.0000   -0.0000 N   0  0  0  0  0  0  0  0  0  0  0  0
    1.2867   -0.7387   -0.0000 C   0  0  0  0  0  0  0  0  0  0  0  0
   -1.3105   -0.7387   -0.0000 C   0  0  0  0  0  0  0  0  0  0  0  0
    1.2748   -2.2398   -0.0000 N   0  0  0  0  0  0  0  0  0  0  0  0
    2.5734    0.0238   -0.0000 N   0  0  0  0  0  0  0  0  0  0  0  0
   -2.6211    0.0238   -0.0000 N   0  0  0  0  0  0  0  0  0  0  0  0
   -1.3225   -2.2279   -0.0000 C   0  0  0  0  0  0  0  0  0  0  0  0
   -0.0477   -2.9785   -0.0000 C   0  0  0  0  0  0  0  0  0  0  0  0
    3.8602   -0.7148   -0.0000 C   0  0  0  0  0  0  0  0  0  0  0  0
   -3.9316   -0.7148   -0.0000 C   0  0  0  0  0  0  0  0  0  0  0  0
   -0.0596   -4.4678   -0.0000 C   0  0  0  0  0  0  0  0  0  0  0  0
    3.8482   -2.2041   -0.0000 C   0  0  0  0  0  0  0  0  0  0  0  0
   -5.2541    0.0596   -0.0000 C   0  0  0  0  0  0  0  0  0  0  0  0
   -3.9436   -2.2041   -0.0000 C   0  0  0  0  0  0  0  0  0  0  0  0
    2.5377   -2.9428   -0.0000 C   0  0  0  0  0  0  0  0  0  0  0  0
    5.1469   -2.9309   -0.0000 C   0  0  0  0  0  0  0  0  0  0  0  0
   -6.5647   -0.6791   -0.0000 C   0  0  0  0  0  0  0  0  0  0  0  0
   -5.2660   -2.9428   -0.0000 C   0  0  0  0  0  0  0  0  0  0  0  0
    2.5258   -4.4320   -0.0000 C   0  0  0  0  0  0  0  0  0  0  0  0
    5.1469   -4.4201   -0.0000 C   0  0  0  0  0  0  0  0  0  0  0  0
   -6.5885   -2.1684   -0.0000 C   0  0  0  0  0  0  0  0  0  0  0  0
    3.8244   -5.1707   -0.0000 C   0  0  0  0  0  0  0  0  0  0  0  0
  1  2  2  0
  1  3  1  0
  2  4  1  0
  2  5  1  0
  3  6  1  0
  3  7  2  0
  4  8  2  0
  5  9  1  0
  6 10  1  0
  8 11  1  0
  9 12  1  0
 10 13  1  0
 10 14  1  0
 12 15  2  0
 12 16  1  0
 13 17  1  0
 14 18  1  0
 15 19  1  0
 16 20  2  0
 17 21  1  0
 19 22  2  0
  7  8  1  0
 18 21  1  0
 20 22  1  0
M  END
>  <MolRegNo>  (1) 
587117

>  <m>  (1) 
=

>  <Value>  (1) 
4200

>  <Unit>  (1) 
nM

>  <Type>  (1) 
IC50

>  <pValue>  (1) 
5.38

>  <Ligand Efficiency>  (1) 
0

>  <Binding Efficiency>  (1) 
0

>  <Surface Efficiency>  (1) 
0

>  <Assay Index>  (1) 
451773

>  <Assay Category>  (1) 


>  <Assay Organism>  (1) 
Homo sapiens

>  <Target ID>  (1) 
11365

>  <Target Name>  (1) 
Cytochrome P450 2D6

>  <Target Organism>  (1) 
Homo sapiens

>  <Target Description>  (1) 
Target is a single protein chain

>  <Sequence Accession>  (1) 
P10635

>  <Reference>  (1) 
Bioorg Med Chem Lett 20 (1), 228-231 (2010)

>  <Pubmed ID>  (1) 
19914064

>  <DOI>  (1) 
10.1016/j.bmcl.2009.10.133

$$$$
