4wnv_ligand_755
     RDKit          2D

 17 19  0  0  0  0  0  0  0  0999 V2000
    0.0000   -0.0000   -0.0000 O   0  0  0  0  0  0  0  0  0  0  0  0
    1.2938    0.7478   -0.0000 C   0  0  0  0  0  0  0  0  0  0  0  0
    2.5876   -0.0119   -0.0000 N   0  0  0  0  0  0  0  0  0  0  0  0
    1.2938    2.2671   -0.0000 C   0  0  0  0  0  0  0  0  0  0  0  0
    3.8814    0.7478   -0.0000 C   0  0  0  0  0  0  0  0  0  0  0  0
    2.5876    3.0149   -0.0000 C   0  0  0  0  0  0  0  0  0  0  0  0
    3.8814    2.2671   -0.0000 C   0  0  0  0  0  0  0  0  0  0  0  0
    5.1752    0.0119   -0.0000 C   0  0  0  0  0  0  0  0  0  0  0  0
    5.1633    3.0268   -0.0000 C   0  0  0  0  0  0  0  0  0  0  0  0
    6.4690    0.7715   -0.0000 C   0  0  0  0  0  0  0  0  0  0  0  0
    6.4571    2.2908   -0.0000 C   0  0  0  0  0  0  0  0  0  0  0  0
    7.7390    3.0624   -0.0000 C   0  0  0  0  0  0  0  0  0  0  0  0
    7.7153    4.5698   -0.0000 C   0  0  0  0  0  0  0  0  0  0  0  0
    9.0328    2.3265   -0.0000 C   0  0  0  0  0  0  0  0  0  0  0  0
    8.9972    5.3414   -0.0000 N   0  0  0  0  0  0  0  0  0  0  0  0
   10.3148    3.0980   -0.0000 C   0  0  0  0  0  0  0  0  0  0  0  0
   10.3029    4.6054   -0.0000 C   0  0  0  0  0  0  0  0  0  0  0  0
  1  2  2  0
  2  3  1  0
  2  4  1  0
  3  5  1  0
  4  6  1  0
  5  7  2  0
  5  8  1  0
  7  9  1  0
  8 10  2  0
  9 11  2  0
 11 12  1  0
 12 13  2  0
 12 14  1  0
 13 15  1  0
 14 16  2  0
 15 17  2  0
  6  7  1  0
 10 11  1  0
 16 17  1  0
M  END
>  <MolRegNo>  (1) 
99609

>  <m>  (1) 
=

>  <Value>  (1) 
171000

>  <Unit>  (1) 
nM

>  <Type>  (1) 
IC50

>  <pValue>  (1) 
0

>  <Ligand Efficiency>  (1) 
0

>  <Binding Efficiency>  (1) 
0

>  <Surface Efficiency>  (1) 
0

>  <Assay Index>  (1) 
386691

>  <Assay Category>  (1) 


>  <Assay Organism>  (1) 
Homo sapiens

>  <Target ID>  (1) 
11365

>  <Target Name>  (1) 
Cytochrome P450 2D6

>  <Target Organism>  (1) 
Homo sapiens

>  <Target Description>  (1) 
Target is a single protein chain

>  <Sequence Accession>  (1) 
P10635

>  <Reference>  (1) 
J Med Chem 51 (24), 8077-8087 (2008)

>  <Pubmed ID>  (1) 
19049427

>  <DOI>  (1) 
10.1021/jm800888q

$$$$
