4wnv_ligand_1034
     RDKit          2D

 29 31  0  0  0  0  0  0  0  0999 V2000
    0.0000   -0.0000   -0.0000 Cl  0  0  0  0  0  0  0  0  0  0  0  0
   -1.2943   -0.7481   -0.0000 C   0  0  0  0  0  0  0  0  0  0  0  0
   -1.2824   -2.2442   -0.0000 C   0  0  0  0  0  0  0  0  0  0  0  0
   -2.6123   -0.0000   -0.0000 C   0  0  0  0  0  0  0  0  0  0  0  0
    0.0119   -2.9686   -0.0000 Cl  0  0  0  0  0  0  0  0  0  0  0  0
   -2.5886   -2.9923   -0.0000 C   0  0  0  0  0  0  0  0  0  0  0  0
   -3.9066   -0.7481   -0.0000 C   0  0  0  0  0  0  0  0  0  0  0  0
   -3.9066   -2.2442   -0.0000 C   0  0  0  0  0  0  0  0  0  0  0  0
   -5.2247   -0.0000   -0.0000 S   0  0  0  0  0  0  0  0  0  0  0  0
   -6.3052    1.0806   -0.0000 O   0  0  0  0  0  0  0  0  0  0  0  0
   -4.5003    1.3180   -0.0000 O   0  0  0  0  0  0  0  0  0  0  0  0
   -6.5308   -0.7481   -0.0000 N   0  0  0  0  0  0  0  0  0  0  0  0
   -6.5308   -2.2324   -0.0000 C   0  0  0  0  0  0  0  0  0  0  0  0
   -7.8251   -2.9804   -0.0000 C   0  0  0  0  0  0  0  0  0  0  0  0
   -5.2484   -2.9567   -0.0000 C   0  0  0  0  0  0  0  0  0  0  0  0
   -9.1313   -2.2205   -0.0000 O   0  0  0  0  0  0  0  0  0  0  0  0
   -7.8370   -4.4647   -0.0000 C   0  0  0  0  0  0  0  0  0  0  0  0
   -5.2484   -4.4528   -0.0000 C   0  0  0  0  0  0  0  0  0  0  0  0
  -10.4375   -2.9567   -0.0000 C   0  0  0  0  0  0  0  0  0  0  0  0
   -6.5546   -5.2009   -0.0000 C   0  0  0  0  0  0  0  0  0  0  0  0
   -3.9541   -5.1890   -0.0000 Cl  0  0  0  0  0  0  0  0  0  0  0  0
  -11.7436   -2.1967   -0.0000 C   0  0  0  0  0  0  0  0  0  0  0  0
  -10.4493   -4.4528   -0.0000 C   0  0  0  0  0  0  0  0  0  0  0  0
  -11.7555   -0.6768   -0.0000 C   0  0  0  0  0  0  0  0  0  0  0  0
  -13.0498   -2.9329   -0.0000 C   0  0  0  0  0  0  0  0  0  0  0  0
  -11.7674   -5.1890   -0.0000 C   0  0  0  0  0  0  0  0  0  0  0  0
  -13.0617    0.0831   -0.0000 O   0  0  0  0  0  0  0  0  0  0  0  0
  -10.4731    0.0831   -0.0000 O   0  0  0  0  0  0  0  0  0  0  0  0
  -13.0617   -4.4172   -0.0000 C   0  0  0  0  0  0  0  0  0  0  0  0
  1  2  1  0
  2  3  2  0
  2  4  1  0
  3  5  1  0
  3  6  1  0
  4  7  2  0
  6  8  2  0
  7  9  1  0
  9 10  2  0
  9 11  2  0
  9 12  1  0
 12 13  1  0
 13 14  1  0
 13 15  2  0
 14 16  1  0
 14 17  2  0
 15 18  1  0
 16 19  1  0
 17 20  1  0
 18 21  1  0
 19 22  2  0
 19 23  1  0
 22 24  1  0
 22 25  1  0
 23 26  2  0
 24 27  2  0
 24 28  1  0
 25 29  2  0
  7  8  1  0
 18 20  2  0
 26 29  1  0
M  END
>  <MolRegNo>  (1) 
648479

>  <m>  (1) 
=

>  <Value>  (1) 
53703

>  <Unit>  (1) 
nM

>  <Type>  (1) 
IC50

>  <pValue>  (1) 
4.27

>  <Ligand Efficiency>  (1) 
0

>  <Binding Efficiency>  (1) 
0

>  <Surface Efficiency>  (1) 
0

>  <Assay Index>  (1) 
485136

>  <Assay Category>  (1) 


>  <Assay Organism>  (1) 


>  <Target ID>  (1) 
11365

>  <Target Name>  (1) 
Cytochrome P450 2D6

>  <Target Organism>  (1) 
Homo sapiens

>  <Target Description>  (1) 
Target is a single protein chain

>  <Sequence Accession>  (1) 
P10635

>  <Reference>  (1) 
Bioorg Med Chem Lett 20 (13), 3961-3964 (2010)

>  <Pubmed ID>  (1) 
20627722

>  <DOI>  (1) 
10.1016/j.bmcl.2010.04.142

$$$$
