4wnv_ligand_2
     RDKit          2D

 30 32  0  0  0  0  0  0  0  0999 V2000
    0.0000   -0.0000   -0.0000 Cl  0  0  0  0  0  0  0  0  0  0  0  0
    1.0597   -0.6107   -0.0000 C   0  0  0  0  0  0  0  0  0  0  0  0
    2.4068    0.1976   -0.0000 C   0  0  0  0  0  0  0  0  0  0  0  0
    1.0418   -2.1554   -0.0000 C   0  0  0  0  0  0  0  0  0  0  0  0
    3.7360   -0.5748   -0.0000 C   0  0  0  0  0  0  0  0  0  0  0  0
    2.3889   -2.9277   -0.0000 C   0  0  0  0  0  0  0  0  0  0  0  0
    3.7180   -2.1194   -0.0000 C   0  0  0  0  0  0  0  0  0  0  0  0
    5.1909   -0.0898   -0.0000 C   0  0  0  0  0  0  0  0  0  0  0  0
    5.1729   -2.5685   -0.0000 S   0  0  0  0  0  0  0  0  0  0  0  0
    6.0889   -1.3112   -0.0000 C   0  0  0  0  0  0  0  0  0  0  0  0
    5.5501    1.1136   -0.0000 C   0  0  0  0  0  0  0  0  0  0  0  0
    7.6336   -1.2753   -0.0000 S   0  0  0  0  0  0  0  0  0  0  0  0
    8.2263   -0.1617   -0.0000 O   0  0  0  0  0  0  0  0  0  0  0  0
    8.8729   -1.2393   -0.0000 O   0  0  0  0  0  0  0  0  0  0  0  0
    8.4060   -2.6044   -0.0000 N   0  0  0  0  0  0  0  0  0  0  0  0
    9.9506   -2.5685   -0.0000 C   0  0  0  0  0  0  0  0  0  0  0  0
   10.7409   -3.8976   -0.0000 C   0  0  0  0  0  0  0  0  0  0  0  0
   10.6871   -1.1855   -0.0000 C   0  0  0  0  0  0  0  0  0  0  0  0
   12.2856   -3.8617   -0.0000 C   0  0  0  0  0  0  0  0  0  0  0  0
   12.2317   -1.1495   -0.0000 C   0  0  0  0  0  0  0  0  0  0  0  0
   13.0759   -5.1909   -0.0000 N   0  0  0  0  0  0  0  0  0  0  0  0
   13.0220   -2.4787   -0.0000 C   0  0  0  0  0  0  0  0  0  0  0  0
   14.6206   -5.1549   -0.0000 C   0  0  0  0  0  0  0  0  0  0  0  0
   12.3036   -6.5380   -0.0000 C   0  0  0  0  0  0  0  0  0  0  0  0
   14.5667   -2.4428   -0.0000 O   0  0  0  0  0  0  0  0  0  0  0  0
   15.4109   -6.4841   -0.0000 C   0  0  0  0  0  0  0  0  0  0  0  0
   13.0939   -7.8671   -0.0000 C   0  0  0  0  0  0  0  0  0  0  0  0
   15.1595   -1.3291   -0.0000 C   0  0  0  0  0  0  0  0  0  0  0  0
   14.6386   -7.8312   -0.0000 N   0  0  0  0  0  0  0  0  0  0  0  0
   18.1051   -3.1612   -0.0000 Cl  0  0  0  0  0  0  0  0  0  0  0  0
  1  2  1  0
  2  3  2  0
  2  4  1  0
  3  5  1  0
  4  6  2  0
  5  7  2  0
  5  8  1  0
  7  9  1  0
  8 10  2  0
  8 11  1  0
 10 12  1  0
 12 13  2  0
 12 14  2  0
 12 15  1  0
 15 16  1  0
 16 17  2  0
 16 18  1  0
 17 19  1  0
 18 20  2  0
 19 21  1  0
 19 22  2  0
 21 23  1  0
 21 24  1  0
 22 25  1  0
 23 26  1  0
 24 27  1  0
 25 28  1  0
 26 29  1  0
  6  7  1  0
  9 10  1  0
 20 22  1  0
 27 29  1  0
M  END
>  <MolRegNo>  (1) 
545283

>  <m>  (1) 
=

>  <Value>  (1) 
32000

>  <Unit>  (1) 
nM

>  <Type>  (1) 
IC50

>  <pValue>  (1) 
4.5

>  <Ligand Efficiency>  (1) 
0

>  <Binding Efficiency>  (1) 
0

>  <Surface Efficiency>  (1) 
0

>  <Assay Index>  (1) 
52463

>  <Assay Category>  (1) 


>  <Assay Organism>  (1) 
Homo sapiens

>  <Target ID>  (1) 
11365

>  <Target Name>  (1) 
Cytochrome P450 2D6

>  <Target Organism>  (1) 
Homo sapiens

>  <Target Description>  (1) 
Target is a single protein chain

>  <Sequence Accession>  (1) 
P10635

>  <Reference>  (1) 
J Med Chem 42 (2), 202-205 (1999)

>  <Pubmed ID>  (1) 
9925723

>  <DOI>  (1) 
10.1021/jm980532e

$$$$
