4wnv_ligand_57
     RDKit          2D

 54 59  0  0  1  0  0  0  0  0999 V2000
    0.0000   -0.0000   -0.0000 F   0  0  0  0  0  0  0  0  0  0  0  0
   -0.0118    1.5141   -0.0000 C   0  0  0  0  0  0  0  0  0  0  0  0
   -1.5260    1.5260   -0.0000 F   0  0  0  0  0  0  0  0  0  0  0  0
    1.4786    1.5260   -0.0000 F   0  0  0  0  0  0  0  0  0  0  0  0
   -0.0237    3.0282   -0.0000 C   0  0  0  0  0  0  0  0  0  0  0  0
    1.2657    3.7853   -0.0000 N   0  0  0  0  0  0  0  0  0  0  0  0
    1.2539    5.2994   -0.0000 C   0  0  0  0  0  0  0  0  0  0  0  0
   -0.0591    6.0565   -0.0000 O   0  0  0  0  0  0  0  0  0  0  0  0
    2.5433    6.0565   -0.0000 C   0  0  0  0  0  0  0  0  0  0  0  0
    3.8326    5.3231   -0.0000 N   0  0  0  0  0  0  0  0  0  0  0  0
    2.5314    7.5706   -0.0000 C   0  0  0  0  0  0  0  0  0  0  0  0
    5.1220    6.0801   -0.0000 C   0  0  0  0  0  0  0  0  0  0  0  0
    3.8208    3.8326   -0.0000 C   0  0  0  0  0  0  0  0  0  0  0  0
    3.8208    8.3277   -0.0000 N   0  0  0  0  0  0  0  0  0  0  0  0
    5.1102    7.5943   -0.0000 C   0  0  0  0  0  0  0  0  0  0  0  0
    5.1102    3.0992   -0.0000 C   0  0  0  0  0  0  0  0  0  0  0  0
    3.8090    9.8418   -0.0000 C   0  0  0  0  0  0  0  0  0  0  0  0
    6.3995    3.8563   -0.0000 O   0  0  0  0  0  0  0  0  0  0  0  0
    5.0983    1.6088   -0.0000 C   0  0  0  0  0  0  0  0  0  0  0  0
    3.7971   11.3559   -0.0000 C   0  0  0  0  0  0  0  0  0  0  0  0
    5.2994    9.8536   -0.0000 C   0  0  0  0  0  0  0  0  0  0  0  0
    2.2948    9.8536   -0.0000 C   0  0  0  0  0  0  0  0  0  0  0  0
    6.3877    0.8754   -0.0000 C   0  0  0  0  0  0  0  0  0  0  0  0
    2.5669   12.2549   -0.0000 O   0  0  0  0  0  0  0  0  0  0  0  0
    5.0037   12.2549   -0.0000 N   0  0  0  0  0  0  0  0  0  0  0  0
    6.3759   -0.6151   -0.0000 C   0  0  0  0  0  0  0  0  0  0  0  0
    7.6771    1.6324   -0.0000 C   0  0  0  0  0  0  0  0  0  0  0  0
    3.0164   13.6981   -0.0000 C   0  0  0  0  0  0  0  0  0  0  0  0
    4.5305   13.6981   -0.0000 C   0  0  0  0  0  0  0  0  0  0  0  0
    5.0628   -1.3485   -0.0000 O   0  0  0  0  0  0  0  0  0  0  0  0
    7.6652   -1.3485   -0.0000 N   0  0  0  0  0  0  0  0  0  0  0  0
    8.9664    0.8990   -0.0000 C   0  0  0  0  0  0  0  0  0  0  0  0
    2.1174   14.9283   -0.0000 C   0  0  0  0  0  0  0  0  0  0  0  0
    7.6534   -2.8390   -0.0000 C   0  0  0  0  0  0  0  0  0  0  0  0
    8.9546   -0.5915   -0.0000 C   0  0  0  0  0  0  0  0  0  0  0  0
   10.2558    1.6561   -0.0000 C   0  0  0  0  0  0  0  0  0  0  0  0
    2.7207   16.3123   -0.0000 N   0  0  0  0  0  0  0  0  0  0  0  0
    0.6151   14.7863   -0.0000 C   0  0  0  0  0  0  0  0  0  0  0  0
    8.9428   -3.5724   -0.0000 C   0  0  0  0  0  0  0  0  0  0  0  0
    6.3404   -3.5724   -0.0000 C   0  0  0  0  0  0  0  0  0  0  0  0
   10.2440   -1.3249   -0.0000 C   0  0  0  0  0  0  0  0  0  0  0  0
   11.5452    0.9227   -0.0000 C   0  0  0  0  0  0  0  0  0  0  0  0
    1.8217   17.5425   -0.0000 C   0  0  0  0  0  0  0  0  0  0  0  0
   -0.2839   16.0166   -0.0000 C   0  0  0  0  0  0  0  0  0  0  0  0
    8.9310   -5.0628   -0.0000 C   0  0  0  0  0  0  0  0  0  0  0  0
   10.2322   -2.8153   -0.0000 C   0  0  0  0  0  0  0  0  0  0  0  0
    5.0274   -2.8153   -0.0000 O   0  0  0  0  0  0  0  0  0  0  0  0
    6.3286   -5.0628   -0.0000 C   0  0  0  0  0  0  0  0  0  0  0  0
   11.5334   -0.5678   -0.0000 C   0  0  0  0  0  0  0  0  0  0  0  0
    0.3194   17.4006   -0.0000 C   0  0  0  0  0  0  0  0  0  0  0  0
    7.6179   -5.7962   -0.0000 O   0  0  0  0  0  0  0  0  0  0  0  0
   10.2203   -5.7962   -0.0000 C   0  0  0  0  0  0  0  0  0  0  0  0
   11.5215   -3.5487   -0.0000 C   0  0  0  0  0  0  0  0  0  0  0  0
   11.5097   -5.0392   -0.0000 C   0  0  0  0  0  0  0  0  0  0  0  0
  1  2  1  0
  2  3  1  0
  2  4  1  0
  2  5  1  0
  5  6  1  0
  6  7  1  0
  7  8  2  0
  9  7  1  6
  9 10  1  0
  9 11  1  0
 10 12  1  0
 10 13  1  0
 11 14  1  0
 12 15  1  0
 13 16  1  0
 14 17  1  0
 16 18  1  1
 16 19  1  0
 17 20  1  0
 17 21  1  0
 17 22  1  0
 23 19  1  1
 20 24  1  0
 20 25  2  0
 23 26  1  0
 23 27  1  0
 24 28  1  0
 25 29  1  0
 26 30  2  0
 26 31  1  0
 27 32  1  0
 28 33  1  0
 34 31  1  1
 32 35  2  0
 32 36  1  0
 33 37  2  0
 33 38  1  0
 34 39  1  0
 34 40  1  0
 35 41  1  0
 36 42  2  0
 37 43  1  0
 38 44  2  0
 39 45  2  0
 39 46  1  0
 40 47  1  1
 40 48  1  0
 41 49  2  0
 43 50  2  0
 45 51  1  0
 45 52  1  0
 46 53  2  0
 52 54  2  0
 14 15  1  0
 28 29  2  0
 42 49  1  0
 44 50  1  0
 48 51  1  0
 53 54  1  0
M  END
>  <MolRegNo>  (1) 
2038627

>  <m>  (1) 
=

>  <Value>  (1) 
22200

>  <Unit>  (1) 
nM

>  <Type>  (1) 
IC50

>  <pValue>  (1) 
4.65

>  <Ligand Efficiency>  (1) 
0

>  <Binding Efficiency>  (1) 
0

>  <Surface Efficiency>  (1) 
0

>  <Assay Index>  (1) 
51635

>  <Assay Category>  (1) 


>  <Assay Organism>  (1) 
Homo sapiens

>  <Target ID>  (1) 
11365

>  <Target Name>  (1) 
Cytochrome P450 2D6

>  <Target Organism>  (1) 
Homo sapiens

>  <Target Description>  (1) 
Target is a single protein chain

>  <Sequence Accession>  (1) 
P10635

>  <Reference>  (1) 
Bioorg Med Chem Lett 13 (15), 2573-2576 (2003)

>  <Pubmed ID>  (1) 
12852969

>  <DOI>  (1) 
10.1016/s0960-894x(03)00474-8

$$$$
