4wnv_ligand_733
     RDKit          2D

 20 22  0  0  0  0  0  0  0  0999 V2000
    0.0000   -0.0000   -0.0000 O   0  0  0  0  0  0  0  0  0  0  0  0
    1.4521    0.3214   -0.0000 C   0  0  0  0  0  0  0  0  0  0  0  0
   -0.4761   -1.4164   -0.0000 C   0  0  0  0  0  0  0  0  0  0  0  0
    1.8926    1.7497   -0.0000 C   0  0  0  0  0  0  0  0  0  0  0  0
    2.4401   -0.7856   -0.0000 C   0  0  0  0  0  0  0  0  0  0  0  0
   -1.9283   -1.8687   -0.0000 C   0  0  0  0  0  0  0  0  0  0  0  0
    0.4047   -2.6305   -0.0000 C   0  0  0  0  0  0  0  0  0  0  0  0
    3.3447    2.0830   -0.0000 C   0  0  0  0  0  0  0  0  0  0  0  0
    0.8689    2.8686   -0.0000 C   0  0  0  0  0  0  0  0  0  0  0  0
    3.8922   -0.4642   -0.0000 C   0  0  0  0  0  0  0  0  0  0  0  0
   -1.9402   -3.3685   -0.0000 C   0  0  0  0  0  0  0  0  0  0  0  0
   -3.2376   -1.1070   -0.0000 C   0  0  0  0  0  0  0  0  0  0  0  0
   -0.4999   -3.8446   -0.0000 C   0  0  0  0  0  0  0  0  0  0  0  0
    1.8926   -2.6186   -0.0000 C   0  0  0  0  0  0  0  0  0  0  0  0
    4.3445    0.9760   -0.0000 C   0  0  0  0  0  0  0  0  0  0  0  0
   -3.2495   -4.1065   -0.0000 C   0  0  0  0  0  0  0  0  0  0  0  0
   -4.5469   -1.8449   -0.0000 C   0  0  0  0  0  0  0  0  0  0  0  0
    2.6305   -3.9041   -0.0000 N   0  0  0  0  0  0  0  0  0  0  0  0
   -4.5588   -3.3447   -0.0000 C   0  0  0  0  0  0  0  0  0  0  0  0
    4.1184   -3.8922   -0.0000 C   0  0  0  0  0  0  0  0  0  0  0  0
  1  2  1  0
  3  1  1  1
  2  4  2  0
  2  5  1  0
  3  6  1  0
  3  7  1  0
  4  8  1  0
  4  9  1  0
  5 10  2  0
  6 11  2  0
  6 12  1  0
  7 13  1  0
  7 14  1  1
  8 15  2  0
 11 16  1  0
 12 17  2  0
 14 18  1  0
 16 19  2  0
 18 20  1  0
 10 15  1  0
 11 13  1  0
 17 19  1  0
M  END
>  <MolRegNo>  (1) 
453300

>  <m>  (1) 
=

>  <Value>  (1) 
800

>  <Unit>  (1) 
nM

>  <Type>  (1) 
IC50

>  <pValue>  (1) 
6.1

>  <Ligand Efficiency>  (1) 
0

>  <Binding Efficiency>  (1) 
0

>  <Surface Efficiency>  (1) 
0

>  <Assay Index>  (1) 
407281

>  <Assay Category>  (1) 


>  <Assay Organism>  (1) 


>  <Target ID>  (1) 
11365

>  <Target Name>  (1) 
Cytochrome P450 2D6

>  <Target Organism>  (1) 
Homo sapiens

>  <Target Description>  (1) 
Target is a single protein chain

>  <Sequence Accession>  (1) 
P10635

>  <Reference>  (1) 
Bioorg Med Chem Lett 18 (23), 6151-6155 (2008)

>  <Pubmed ID>  (1) 
18954981

>  <DOI>  (1) 
10.1016/j.bmcl.2008.10.013

$$$$
