4wnv_ligand_704
     RDKit          2D

 32 33  0  0  0  0  0  0  0  0999 V2000
    0.0000   -0.0000   -0.0000 Cl  0  0  0  0  0  0  0  0  0  0  0  0
   -2.2246   -1.9904   -0.0000 Cl  0  0  0  0  0  0  0  0  0  0  0  0
   14.7525    4.2150   -0.0000 S   0  0  0  0  0  0  0  0  0  0  0  0
   15.4842    2.9271   -0.0000 O   0  0  0  0  0  0  0  0  0  0  0  0
   13.9914    5.5322   -0.0000 O   0  0  0  0  0  0  0  0  0  0  0  0
   16.0404    4.9760   -0.0000 N   0  0  0  0  0  0  0  0  0  0  0  0
   13.4353    3.4832   -0.0000 C   0  0  0  0  0  0  0  0  0  0  0  0
   13.4207    2.0050   -0.0000 C   0  0  0  0  0  0  0  0  0  0  0  0
   12.1181    4.2443   -0.0000 C   0  0  0  0  0  0  0  0  0  0  0  0
   12.1035    1.2733   -0.0000 C   0  0  0  0  0  0  0  0  0  0  0  0
   10.8009    3.5125   -0.0000 C   0  0  0  0  0  0  0  0  0  0  0  0
   12.0888   -0.2049   -0.0000 N   0  0  0  0  0  0  0  0  0  0  0  0
   10.7863    2.0343   -0.0000 C   0  0  0  0  0  0  0  0  0  0  0  0
   10.7717   -0.9367   -0.0000 C   0  0  0  0  0  0  0  0  0  0  0  0
   10.7570   -2.4148   -0.0000 N   0  0  0  0  0  0  0  0  0  0  0  0
    9.4545   -0.1756   -0.0000 N   0  0  0  0  0  0  0  0  0  0  0  0
    9.4398   -3.1466   -0.0000 C   0  0  0  0  0  0  0  0  0  0  0  0
    8.1373   -0.9074   -0.0000 C   0  0  0  0  0  0  0  0  0  0  0  0
    9.4252   -4.6248   -0.0000 N   0  0  0  0  0  0  0  0  0  0  0  0
    8.1226   -2.3856   -0.0000 C   0  0  0  0  0  0  0  0  0  0  0  0
    8.1080   -5.3566   -0.0000 C   0  0  0  0  0  0  0  0  0  0  0  0
   10.7131   -5.3566   -0.0000 C   0  0  0  0  0  0  0  0  0  0  0  0
    6.7908   -4.5955   -0.0000 C   0  0  0  0  0  0  0  0  0  0  0  0
    8.0934   -6.8347   -0.0000 C   0  0  0  0  0  0  0  0  0  0  0  0
    5.4736   -5.3273   -0.0000 C   0  0  0  0  0  0  0  0  0  0  0  0
    6.7762   -7.5665   -0.0000 C   0  0  0  0  0  0  0  0  0  0  0  0
    4.0394   -4.8443   -0.0000 N   0  0  0  0  0  0  0  0  0  0  0  0
    5.4590   -6.8055   -0.0000 C   0  0  0  0  0  0  0  0  0  0  0  0
    3.1466   -6.0444   -0.0000 N   0  0  0  0  0  0  0  0  0  0  0  0
    4.0247   -7.2592   -0.0000 C   0  0  0  0  0  0  0  0  0  0  0  0
    1.6392   -6.0298   -0.0000 C   0  0  0  0  0  0  0  0  0  0  0  0
    3.5418   -8.6642   -0.0000 C   0  0  0  0  0  0  0  0  0  0  0  0
  3  4  2  0
  3  5  2  0
  3  6  1  0
  3  7  1  0
  7  8  2  0
  7  9  1  0
  8 10  1  0
  9 11  2  0
 10 12  1  0
 10 13  2  0
 12 14  1  0
 14 15  2  0
 14 16  1  0
 15 17  1  0
 16 18  2  0
 17 19  1  0
 17 20  2  0
 19 21  1  0
 19 22  1  0
 21 23  2  0
 21 24  1  0
 23 25  1  0
 24 26  2  0
 25 27  2  0
 25 28  1  0
 27 29  1  0
 28 30  2  0
 29 31  1  0
 30 32  1  0
 11 13  1  0
 18 20  1  0
 26 28  1  0
 29 30  1  0
M  END
>  <MolRegNo>  (1) 
1157705

>  <m>  (1) 
=

>  <Value>  (1) 
16000

>  <Unit>  (1) 
nM

>  <Type>  (1) 
IC50

>  <pValue>  (1) 
4.8

>  <Ligand Efficiency>  (1) 
0

>  <Binding Efficiency>  (1) 
0

>  <Surface Efficiency>  (1) 
0

>  <Assay Index>  (1) 
338813

>  <Assay Category>  (1) 


>  <Assay Organism>  (1) 
Homo sapiens

>  <Target ID>  (1) 
11365

>  <Target Name>  (1) 
Cytochrome P450 2D6

>  <Target Organism>  (1) 
Homo sapiens

>  <Target Description>  (1) 
Target is a single protein chain

>  <Sequence Accession>  (1) 
P10635

>  <Reference>  (1) 
J Med Chem 51 (15), 4632-4640 (2008)

>  <Pubmed ID>  (1) 
18620382

>  <DOI>  (1) 
10.1021/jm800566m

$$$$
