4wnv_ligand_221
     RDKit          2D

 32 35  0  0  1  0  0  0  0  0999 V2000
    0.0000   -0.0000   -0.0000 S   0  0  0  0  0  0  0  0  0  0  0  0
    1.3005   -0.7278   -0.0000 O   0  0  0  0  0  0  0  0  0  0  0  0
   -1.3243    0.7516   -0.0000 O   0  0  0  0  0  0  0  0  0  0  0  0
   -0.7636   -1.2885   -0.0000 N   0  0  0  0  0  0  0  0  0  0  0  0
    0.7278    1.3243   -0.0000 C   0  0  0  0  0  0  0  0  0  0  0  0
   -0.0239   -2.5771   -0.0000 C   0  0  0  0  0  0  0  0  0  0  0  0
    1.4556   -2.5651   -0.0000 C   0  0  0  0  0  0  0  0  0  0  0  0
   -0.7874   -3.8656   -0.0000 C   0  0  0  0  0  0  0  0  0  0  0  0
    2.4458   -1.4317   -0.0000 O   0  0  0  0  0  0  0  0  0  0  0  0
    2.1953   -3.8536   -0.0000 C   0  0  0  0  0  0  0  0  0  0  0  0
   -0.0477   -5.1541   -0.0000 C   0  0  0  0  0  0  0  0  0  0  0  0
    3.8059   -2.0402   -0.0000 C   0  0  0  0  0  0  0  0  0  0  0  0
    1.4436   -5.1302   -0.0000 C   0  0  0  0  0  0  0  0  0  0  0  0
    3.6508   -3.5315   -0.0000 C   0  0  0  0  0  0  0  0  0  0  0  0
    5.0944   -1.2766   -0.0000 C   0  0  0  0  0  0  0  0  0  0  0  0
    5.0825    0.2386   -0.0000 O   0  0  0  0  0  0  0  0  0  0  0  0
    6.3830   -2.0163   -0.0000 N   0  0  0  0  0  0  0  0  0  0  0  0
    7.6715   -1.2527   -0.0000 C   0  0  0  0  0  0  0  0  0  0  0  0
    6.3710   -3.5077   -0.0000 C   0  0  0  0  0  0  0  0  0  0  0  0
    7.6596    0.2625   -0.0000 C   0  0  0  0  0  0  0  0  0  0  0  0
    8.9600   -1.9924   -0.0000 C   0  0  0  0  0  0  0  0  0  0  0  0
    6.3472    1.0260   -0.0000 C   0  0  0  0  0  0  0  0  0  0  0  0
    8.9600    1.0260   -0.0000 C   0  0  0  0  0  0  0  0  0  0  0  0
   10.2485   -1.2289   -0.0000 N   0  0  0  0  0  0  0  0  0  0  0  0
    6.3352    2.5532   -0.0000 C   0  0  0  0  0  0  0  0  0  0  0  0
    8.9481    2.5532   -0.0000 C   0  0  0  0  0  0  0  0  0  0  0  0
   11.6087   -1.8254   -0.0000 C   0  0  0  0  0  0  0  0  0  0  0  0
   10.3917    0.2863   -0.0000 C   0  0  0  0  0  0  0  0  0  0  0  0
    7.6238    3.3168   -0.0000 C   0  0  0  0  0  0  0  0  0  0  0  0
   12.5989   -0.6920   -0.0000 C   0  0  0  0  0  0  0  0  0  0  0  0
   11.8473    0.6085   -0.0000 C   0  0  0  0  0  0  0  0  0  0  0  0
   14.0783   -0.8352   -0.0000 O   0  0  0  0  0  0  0  0  0  0  0  0
  1  2  2  0
  1  3  2  0
  1  4  1  0
  1  5  1  0
  4  6  1  0
  6  7  2  0
  6  8  1  0
  7  9  1  0
  7 10  1  0
  8 11  2  0
  9 12  1  0
 10 13  2  0
 10 14  1  0
 12 15  1  1
 15 16  2  0
 15 17  1  0
 18 17  1  0
 17 19  1  0
 18 20  1  0
 18 21  1  1
 20 22  2  0
 20 23  1  0
 21 24  1  0
 22 25  1  0
 23 26  2  0
 24 27  1  0
 24 28  1  0
 25 29  2  0
 27 30  1  0
 28 31  1  0
 30 32  1  6
 11 13  1  0
 12 14  1  0
 26 29  1  0
 30 31  1  0
M  END
>  <MolRegNo>  (1) 
332032

>  <m>  (1) 
=

>  <Value>  (1) 
1100

>  <Unit>  (1) 
nM

>  <Type>  (1) 
IC50

>  <pValue>  (1) 
5.96

>  <Ligand Efficiency>  (1) 
0

>  <Binding Efficiency>  (1) 
0

>  <Surface Efficiency>  (1) 
0

>  <Assay Index>  (1) 
253815

>  <Assay Category>  (1) 


>  <Assay Organism>  (1) 
Homo sapiens

>  <Target ID>  (1) 
11365

>  <Target Name>  (1) 
Cytochrome P450 2D6

>  <Target Organism>  (1) 
Homo sapiens

>  <Target Description>  (1) 
Target is a single protein chain

>  <Sequence Accession>  (1) 
P10635

>  <Reference>  (1) 
Bioorg Med Chem Lett 15 (23), 5114-5119 (2005)

>  <Pubmed ID>  (1) 
16203140

>  <DOI>  (1) 
10.1016/j.bmcl.2005.08.094

$$$$
