4wnv_ligand_543
     RDKit          2D

 34 38  0  0  0  0  0  0  0  0999 V2000
    0.0000   -0.0000   -0.0000 Cl  0  0  0  0  0  0  0  0  0  0  0  0
    1.2597    0.8081   -0.0000 C   0  0  0  0  0  0  0  0  0  0  0  0
    1.1884    2.3173   -0.0000 C   0  0  0  0  0  0  0  0  0  0  0  0
    2.5669    0.1307   -0.0000 C   0  0  0  0  0  0  0  0  0  0  0  0
   -0.1545    3.0303   -0.0000 Cl  0  0  0  0  0  0  0  0  0  0  0  0
    2.4480    3.1254   -0.0000 C   0  0  0  0  0  0  0  0  0  0  0  0
    3.8146    0.9388   -0.0000 C   0  0  0  0  0  0  0  0  0  0  0  0
    3.7552    2.4361   -0.0000 C   0  0  0  0  0  0  0  0  0  0  0  0
    5.1337    0.2496   -0.0000 N   0  0  0  0  0  0  0  0  0  0  0  0
    5.0030    3.2561   -0.0000 N   0  0  0  0  0  0  0  0  0  0  0  0
    6.3934    1.0576   -0.0000 C   0  0  0  0  0  0  0  0  0  0  0  0
    6.3221    2.5669   -0.0000 C   0  0  0  0  0  0  0  0  0  0  0  0
    4.9317    4.7653   -0.0000 C   0  0  0  0  0  0  0  0  0  0  0  0
    7.5817    3.3868   -0.0000 O   0  0  0  0  0  0  0  0  0  0  0  0
    6.2270    5.5259   -0.0000 C   0  0  0  0  0  0  0  0  0  0  0  0
    7.5223    4.7891   -0.0000 O   0  0  0  0  0  0  0  0  0  0  0  0
    6.2032    7.0470   -0.0000 N   0  0  0  0  0  0  0  0  0  0  0  0
    7.4985    7.8075   -0.0000 C   0  0  0  0  0  0  0  0  0  0  0  0
    4.8841    7.7956   -0.0000 C   0  0  0  0  0  0  0  0  0  0  0  0
    7.4867    9.3167   -0.0000 C   0  0  0  0  0  0  0  0  0  0  0  0
    8.4017    6.6310   -0.0000 C   0  0  0  0  0  0  0  0  0  0  0  0
    4.8723    9.3167   -0.0000 C   0  0  0  0  0  0  0  0  0  0  0  0
    8.7820   10.0773   -0.0000 C   0  0  0  0  0  0  0  0  0  0  0  0
    6.1676   10.0773   -0.0000 C   0  0  0  0  0  0  0  0  0  0  0  0
    9.8753    6.8449   -0.0000 N   0  0  0  0  0  0  0  0  0  0  0  0
   10.0773    9.3405   -0.0000 C   0  0  0  0  0  0  0  0  0  0  0  0
    8.7701   11.5865   -0.0000 C   0  0  0  0  0  0  0  0  0  0  0  0
   10.8972    5.7754   -0.0000 C   0  0  0  0  0  0  0  0  0  0  0  0
   10.5764    8.1878   -0.0000 C   0  0  0  0  0  0  0  0  0  0  0  0
   11.3607   10.1010   -0.0000 C   0  0  0  0  0  0  0  0  0  0  0  0
   10.0535   12.3589   -0.0000 C   0  0  0  0  0  0  0  0  0  0  0  0
   12.2401    6.4409   -0.0000 C   0  0  0  0  0  0  0  0  0  0  0  0
   12.0499    7.9263   -0.0000 C   0  0  0  0  0  0  0  0  0  0  0  0
   11.3488   11.6221   -0.0000 C   0  0  0  0  0  0  0  0  0  0  0  0
  1  2  1  0
  2  3  2  0
  2  4  1  0
  3  5  1  0
  3  6  1  0
  4  7  2  0
  6  8  2  0
  7  9  1  0
  8 10  1  0
  9 11  2  0
 10 12  1  0
 10 13  1  0
 12 14  2  0
 13 15  1  0
 15 16  2  0
 15 17  1  0
 17 18  1  0
 17 19  1  0
 18 20  1  0
 18 21  1  0
 19 22  1  0
 20 23  1  0
 20 24  1  0
 21 25  1  0
 23 26  2  0
 23 27  1  0
 25 28  1  0
 25 29  1  0
 26 30  1  0
 27 31  2  0
 28 32  1  0
 29 33  1  0
 30 34  2  0
  7  8  1  0
 11 12  1  0
 22 24  1  0
 31 34  1  0
 32 33  1  0
M  END
>  <MolRegNo>  (1) 
426733

>  <m>  (1) 
=

>  <Value>  (1) 
2900

>  <Unit>  (1) 
nM

>  <Type>  (1) 
IC50

>  <pValue>  (1) 
5.54

>  <Ligand Efficiency>  (1) 
0

>  <Binding Efficiency>  (1) 
0

>  <Surface Efficiency>  (1) 
0

>  <Assay Index>  (1) 
328211

>  <Assay Category>  (1) 


>  <Assay Organism>  (1) 


>  <Target ID>  (1) 
11365

>  <Target Name>  (1) 
Cytochrome P450 2D6

>  <Target Organism>  (1) 
Homo sapiens

>  <Target Description>  (1) 
Target is a single protein chain

>  <Sequence Accession>  (1) 
P10635

>  <Reference>  (1) 
Bioorg Med Chem Lett 18 (12), 3500-3503 (2008)

>  <Pubmed ID>  (1) 
18502123

>  <DOI>  (1) 
10.1016/j.bmcl.2008.05.027

$$$$
