4wnv_ligand_571
     RDKit          2D

 21 23  0  0  0  0  0  0  0  0999 V2000
    0.0000   -0.0000   -0.0000 O   0  0  0  0  0  0  0  0  0  0  0  0
   -1.3012    0.7570   -0.0000 C   0  0  0  0  0  0  0  0  0  0  0  0
    1.2893    0.7570   -0.0000 C   0  0  0  0  0  0  0  0  0  0  0  0
   -1.3130    2.2711   -0.0000 C   0  0  0  0  0  0  0  0  0  0  0  0
   -2.6023    0.0118   -0.0000 C   0  0  0  0  0  0  0  0  0  0  0  0
    1.2775    2.2711   -0.0000 C   0  0  0  0  0  0  0  0  0  0  0  0
   -2.6260    3.0281   -0.0000 C   0  0  0  0  0  0  0  0  0  0  0  0
   -0.0355    3.0400   -0.0000 C   0  0  0  0  0  0  0  0  0  0  0  0
   -3.9153    0.7689   -0.0000 C   0  0  0  0  0  0  0  0  0  0  0  0
    2.5668    3.0281   -0.0000 C   0  0  0  0  0  0  0  0  0  0  0  0
   -3.9271    2.2948   -0.0000 C   0  0  0  0  0  0  0  0  0  0  0  0
   -0.0473    4.5422   -0.0000 O   0  0  0  0  0  0  0  0  0  0  0  0
    3.8443    2.2948   -0.0000 N   0  0  0  0  0  0  0  0  0  0  0  0
    1.2420    5.2992   -0.0000 C   0  0  0  0  0  0  0  0  0  0  0  0
    3.8325    0.8162   -0.0000 C   0  0  0  0  0  0  0  0  0  0  0  0
    1.2184    6.8015   -0.0000 C   0  0  0  0  0  0  0  0  0  0  0  0
    2.5195    4.5540   -0.0000 C   0  0  0  0  0  0  0  0  0  0  0  0
    2.4958    7.5585   -0.0000 C   0  0  0  0  0  0  0  0  0  0  0  0
   -0.0946    7.5585   -0.0000 C   0  0  0  0  0  0  0  0  0  0  0  0
    3.7970    5.3111   -0.0000 C   0  0  0  0  0  0  0  0  0  0  0  0
    3.7852    6.8251   -0.0000 C   0  0  0  0  0  0  0  0  0  0  0  0
  1  2  1  0
  1  3  1  0
  2  4  2  0
  2  5  1  0
  3  6  1  0
  4  7  1  0
  4  8  1  0
  5  9  2  0
  6 10  1  1
  7 11  2  0
  8 12  1  1
 10 13  1  0
 12 14  1  0
 13 15  1  0
 14 16  2  0
 14 17  1  0
 16 18  1  0
 16 19  1  0
 17 20  2  0
 18 21  2  0
  6  8  1  0
  9 11  1  0
 20 21  1  0
M  END
>  <MolRegNo>  (1) 
511415

>  <m>  (1) 
=

>  <Value>  (1) 
180

>  <Unit>  (1) 
nM

>  <Type>  (1) 
IC50

>  <pValue>  (1) 
6.75

>  <Ligand Efficiency>  (1) 
0

>  <Binding Efficiency>  (1) 
0

>  <Surface Efficiency>  (1) 
0

>  <Assay Index>  (1) 
358939

>  <Assay Category>  (1) 


>  <Assay Organism>  (1) 


>  <Target ID>  (1) 
11365

>  <Target Name>  (1) 
Cytochrome P450 2D6

>  <Target Organism>  (1) 
Homo sapiens

>  <Target Description>  (1) 
Target is a single protein chain

>  <Sequence Accession>  (1) 
P10635

>  <Reference>  (1) 
Bioorg Med Chem Lett 18 (16), 4491-4494 (2008)

>  <Pubmed ID>  (1) 
18672364

>  <DOI>  (1) 
10.1016/j.bmcl.2008.07.049

$$$$
