4wnv_ligand_976
     RDKit          2D

 27 30  0  0  0  0  0  0  0  0999 V2000
    0.0000   -0.0000   -0.0000 S   0  0  0  0  0  0  0  0  0  0  0  0
    1.2795    0.7700   -0.0000 O   0  0  0  0  0  0  0  0  0  0  0  0
    0.7227   -1.2795   -0.0000 O   0  0  0  0  0  0  0  0  0  0  0  0
   -1.3031   -0.7463   -0.0000 C   0  0  0  0  0  0  0  0  0  0  0  0
   -0.0118    1.5164   -0.0000 C   0  0  0  0  0  0  0  0  0  0  0  0
   -1.3031   -2.2272   -0.0000 C   0  0  0  0  0  0  0  0  0  0  0  0
   -2.6181    0.0118   -0.0000 C   0  0  0  0  0  0  0  0  0  0  0  0
    1.2913    2.2864   -0.0000 C   0  0  0  0  0  0  0  0  0  0  0  0
   -2.6181   -2.9735   -0.0000 N   0  0  0  0  0  0  0  0  0  0  0  0
   -3.9331   -0.7345   -0.0000 C   0  0  0  0  0  0  0  0  0  0  0  0
    2.5826    1.5401   -0.0000 C   0  0  0  0  0  0  0  0  0  0  0  0
    1.2795    3.8028   -0.0000 C   0  0  0  0  0  0  0  0  0  0  0  0
   -3.9331   -2.2272   -0.0000 C   0  0  0  0  0  0  0  0  0  0  0  0
    3.8621    2.3101   -0.0000 C   0  0  0  0  0  0  0  0  0  0  0  0
    2.5708    4.5610   -0.0000 C   0  0  0  0  0  0  0  0  0  0  0  0
   -5.2481   -2.9735   -0.0000 N   0  0  0  0  0  0  0  0  0  0  0  0
    3.8502    3.8265   -0.0000 C   0  0  0  0  0  0  0  0  0  0  0  0
    5.0112    1.3861   -0.0000 C   0  0  0  0  0  0  0  0  0  0  0  0
   -6.5631   -2.2154   -0.0000 C   0  0  0  0  0  0  0  0  0  0  0  0
   -5.2481   -4.4544   -0.0000 C   0  0  0  0  0  0  0  0  0  0  0  0
    5.0112    4.7624   -0.0000 C   0  0  0  0  0  0  0  0  0  0  0  0
    6.4684    1.7296   -0.0000 C   0  0  0  0  0  0  0  0  0  0  0  0
   -7.8781   -2.9617   -0.0000 C   0  0  0  0  0  0  0  0  0  0  0  0
   -6.5513   -5.2007   -0.0000 C   0  0  0  0  0  0  0  0  0  0  0  0
    6.4565    4.4426   -0.0000 C   0  0  0  0  0  0  0  0  0  0  0  0
    7.1081    3.0920   -0.0000 N   0  0  0  0  0  0  0  0  0  0  0  0
   -7.8781   -4.4544   -0.0000 O   0  0  0  0  0  0  0  0  0  0  0  0
  1  2  2  0
  1  3  2  0
  1  4  1  0
  1  5  1  0
  4  6  2  0
  4  7  1  0
  5  8  1  0
  6  9  1  0
  7 10  2  0
  8 11  2  0
  8 12  1  0
  9 13  2  0
 11 14  1  0
 12 15  2  0
 13 16  1  0
 14 17  2  0
 14 18  1  0
 16 19  1  0
 16 20  1  0
 17 21  1  0
 18 22  1  0
 19 23  1  0
 20 24  1  0
 21 25  1  0
 22 26  1  0
 23 27  1  0
 10 13  1  0
 15 17  1  0
 24 27  1  0
 25 26  1  0
M  END
>  <MolRegNo>  (1) 
617540

>  <m>  (1) 
=

>  <Value>  (1) 
16000

>  <Unit>  (1) 
nM

>  <Type>  (1) 
IC50

>  <pValue>  (1) 
4.8

>  <Ligand Efficiency>  (1) 
0

>  <Binding Efficiency>  (1) 
0

>  <Surface Efficiency>  (1) 
0

>  <Assay Index>  (1) 
468007

>  <Assay Category>  (1) 


>  <Assay Organism>  (1) 
Homo sapiens

>  <Target ID>  (1) 
11365

>  <Target Name>  (1) 
Cytochrome P450 2D6

>  <Target Organism>  (1) 
Homo sapiens

>  <Target Description>  (1) 
Target is a single protein chain

>  <Sequence Accession>  (1) 
P10635

>  <Reference>  (1) 
Bioorg Med Chem Lett 19 (22), 6452-6458 (2009)

>  <Pubmed ID>  (1) 
19804969

>  <DOI>  (1) 
10.1016/j.bmcl.2009.09.027

$$$$
