4wnv_ligand_41
     RDKit          2D

 16 17  0  0  0  0  0  0  0  0999 V2000
    0.0000   -0.0000   -0.0000 O   0  0  0  0  0  0  0  0  0  0  0  0
    1.2879    0.7562   -0.0000 C   0  0  0  0  0  0  0  0  0  0  0  0
   -1.3115    0.7562   -0.0000 C   0  0  0  0  0  0  0  0  0  0  0  0
    1.2642    2.2685   -0.0000 C   0  0  0  0  0  0  0  0  0  0  0  0
    2.5757    0.0236   -0.0000 C   0  0  0  0  0  0  0  0  0  0  0  0
   -2.6230    0.0236   -0.0000 C   0  0  0  0  0  0  0  0  0  0  0  0
    2.5521    3.0247   -0.0000 C   0  0  0  0  0  0  0  0  0  0  0  0
    3.8636    0.7798   -0.0000 C   0  0  0  0  0  0  0  0  0  0  0  0
   -3.9463    0.7798   -0.0000 C   0  0  0  0  0  0  0  0  0  0  0  0
    3.8399    2.2922   -0.0000 C   0  0  0  0  0  0  0  0  0  0  0  0
   -5.2578    0.0473   -0.0000 C   0  0  0  0  0  0  0  0  0  0  0  0
    5.1278    3.0483   -0.0000 C   0  0  0  0  0  0  0  0  0  0  0  0
    5.2696    4.5607   -0.0000 N   0  0  0  0  0  0  0  0  0  0  0  0
    6.4747    2.4458   -0.0000 C   0  0  0  0  0  0  0  0  0  0  0  0
    6.7110    4.8797   -0.0000 N   0  0  0  0  0  0  0  0  0  0  0  0
    7.4790    3.5800   -0.0000 C   0  0  0  0  0  0  0  0  0  0  0  0
  1  2  1  0
  1  3  1  0
  2  4  2  0
  2  5  1  0
  3  6  1  0
  4  7  1  0
  5  8  2  0
  6  9  1  0
  7 10  2  0
  9 11  1  0
 10 12  1  0
 12 13  2  0
 12 14  1  0
 13 15  1  0
 14 16  2  0
  8 10  1  0
 15 16  1  0
M  END
>  <MolRegNo>  (1) 
251875

>  <m>  (1) 
=

>  <Value>  (1) 
93500

>  <Unit>  (1) 
nM

>  <Type>  (1) 
IC50

>  <pValue>  (1) 
4.03

>  <Ligand Efficiency>  (1) 
0

>  <Binding Efficiency>  (1) 
0

>  <Surface Efficiency>  (1) 
0

>  <Assay Index>  (1) 
51627

>  <Assay Category>  (1) 


>  <Assay Organism>  (1) 


>  <Target ID>  (1) 
11365

>  <Target Name>  (1) 
Cytochrome P450 2D6

>  <Target Organism>  (1) 
Homo sapiens

>  <Target Description>  (1) 
Target is a single protein chain

>  <Sequence Accession>  (1) 
P10635

>  <Reference>  (1) 
J Med Chem 46 (25), 5416-5427 (2003)

>  <Pubmed ID>  (1) 
14640550

>  <DOI>  (1) 
10.1021/jm020557k

$$$$
