4wnv_ligand_493
     RDKit          2D

 39 43  0  0  1  0  0  0  0  0999 V2000
    0.0000   -0.0000   -0.0000 F   0  0  0  0  0  0  0  0  0  0  0  0
    1.4927   -0.0000   -0.0000 C   0  0  0  0  0  0  0  0  0  0  0  0
    2.2272   -1.2913   -0.0000 C   0  0  0  0  0  0  0  0  0  0  0  0
    2.2391    1.3032   -0.0000 C   0  0  0  0  0  0  0  0  0  0  0  0
    3.7199   -1.2913   -0.0000 C   0  0  0  0  0  0  0  0  0  0  0  0
    3.7199    1.3150   -0.0000 C   0  0  0  0  0  0  0  0  0  0  0  0
    4.4663    0.0237   -0.0000 C   0  0  0  0  0  0  0  0  0  0  0  0
    5.9590    0.0355   -0.0000 C   0  0  0  0  0  0  0  0  0  0  0  0
    6.7053    1.3505   -0.0000 C   0  0  0  0  0  0  0  0  0  0  0  0
    8.1980    1.3624   -0.0000 C   0  0  0  0  0  0  0  0  0  0  0  0
    5.9353    2.6655   -0.0000 C   0  0  0  0  0  0  0  0  0  0  0  0
    8.9444    2.6655   -0.0000 N   0  0  0  0  0  0  0  0  0  0  0  0
    6.6816    3.9805   -0.0000 C   0  0  0  0  0  0  0  0  0  0  0  0
   10.4371    2.6655   -0.0000 C   0  0  0  0  0  0  0  0  0  0  0  0
    8.1862    3.9805   -0.0000 C   0  0  0  0  0  0  0  0  0  0  0  0
   11.1834    3.9805   -0.0000 O   0  0  0  0  0  0  0  0  0  0  0  0
   11.1716    1.3742   -0.0000 C   0  0  0  0  0  0  0  0  0  0  0  0
   12.6643    1.3742   -0.0000 C   0  0  0  0  0  0  0  0  0  0  0  0
   13.4106    2.6892   -0.0000 N   0  0  0  0  0  0  0  0  0  0  0  0
   13.3988    0.0829   -0.0000 C   0  0  0  0  0  0  0  0  0  0  0  0
   14.9033    2.6892   -0.0000 C   0  0  0  0  0  0  0  0  0  0  0  0
   15.6378    1.3979   -0.0000 O   0  0  0  0  0  0  0  0  0  0  0  0
   15.6497    4.0042   -0.0000 N   0  0  0  0  0  0  0  0  0  0  0  0
   17.1424    4.0042   -0.0000 C   0  0  0  0  0  0  0  0  0  0  0  0
   17.8650    2.7129   -0.0000 C   0  0  0  0  0  0  0  0  0  0  0  0
   17.8769    5.3192   -0.0000 C   0  0  0  0  0  0  0  0  0  0  0  0
   19.3577    2.7129   -0.0000 C   0  0  0  0  0  0  0  0  0  0  0  0
   19.3696    5.3311   -0.0000 C   0  0  0  0  0  0  0  0  0  0  0  0
   20.1041    1.4216   -0.0000 N   0  0  0  0  0  0  0  0  0  0  0  0
   20.1041    4.0279   -0.0000 C   0  0  0  0  0  0  0  0  0  0  0  0
   20.1159    6.6461   -0.0000 N   0  0  0  0  0  0  0  0  0  0  0  0
   19.4880    0.0592   -0.0000 N   0  0  0  0  0  0  0  0  0  0  0  0
   21.5968    1.2795   -0.0000 C   0  0  0  0  0  0  0  0  0  0  0  0
   21.5968    6.8238   -0.0000 N   0  0  0  0  0  0  0  0  0  0  0  0
   19.4880    8.0440   -0.0000 C   0  0  0  0  0  0  0  0  0  0  0  0
   20.6016   -0.9359   -0.0000 C   0  0  0  0  0  0  0  0  0  0  0  0
   21.9048   -0.1777   -0.0000 C   0  0  0  0  0  0  0  0  0  0  0  0
   21.9048    8.3046   -0.0000 C   0  0  0  0  0  0  0  0  0  0  0  0
   20.6016    9.0628   -0.0000 C   0  0  0  0  0  0  0  0  0  0  0  0
  1  2  1  0
  2  3  2  0
  2  4  1  0
  3  5  1  0
  4  6  2  0
  5  7  2  0
  7  8  1  0
  9  8  1  6
  9 10  1  0
  9 11  1  0
 10 12  1  0
 11 13  1  0
 12 14  1  0
 12 15  1  0
 14 16  1  6
 14 17  1  0
 17 18  1  0
 18 19  1  0
 18 20  1  6
 19 21  1  0
 21 22  2  0
 21 23  1  0
 23 24  1  0
 24 25  2  0
 24 26  1  0
 25 27  1  0
 26 28  2  0
 27 29  1  0
 27 30  2  0
 28 31  1  0
 29 32  1  0
 29 33  1  0
 31 34  1  0
 31 35  1  0
 32 36  2  0
 33 37  2  0
 34 38  2  0
 35 39  2  0
  6  7  1  0
 13 15  1  0
 28 30  1  0
 36 37  1  0
 38 39  1  0
M  END
>  <MolRegNo>  (1) 
438018

>  <m>  (1) 
=

>  <Value>  (1) 
5900

>  <Unit>  (1) 
nM

>  <Type>  (1) 
IC50

>  <pValue>  (1) 
5.23

>  <Ligand Efficiency>  (1) 
0

>  <Binding Efficiency>  (1) 
0

>  <Surface Efficiency>  (1) 
0

>  <Assay Index>  (1) 
314783

>  <Assay Category>  (1) 


>  <Assay Organism>  (1) 


>  <Target ID>  (1) 
11365

>  <Target Name>  (1) 
Cytochrome P450 2D6

>  <Target Organism>  (1) 
Homo sapiens

>  <Target Description>  (1) 
Target is a single protein chain

>  <Sequence Accession>  (1) 
P10635

>  <Reference>  (1) 
Bioorg Med Chem Lett 18 (2), 576-585 (2008)

>  <Pubmed ID>  (1) 
18096386

>  <DOI>  (1) 
10.1016/j.bmcl.2007.11.067

$$$$
