4wnv_ligand_1070
     RDKit          2D

 21 23  0  0  0  0  0  0  0  0999 V2000
    0.0000   -0.0000   -0.0000 F   0  0  0  0  0  0  0  0  0  0  0  0
   -0.0118    1.4983   -0.0000 C   0  0  0  0  0  0  0  0  0  0  0  0
    1.2741    2.2651   -0.0000 C   0  0  0  0  0  0  0  0  0  0  0  0
   -1.3213    2.2533   -0.0000 C   0  0  0  0  0  0  0  0  0  0  0  0
    2.6898    1.8286   -0.0000 N   0  0  0  0  0  0  0  0  0  0  0  0
    1.2505    3.7752   -0.0000 C   0  0  0  0  0  0  0  0  0  0  0  0
   -1.3331    3.7634   -0.0000 C   0  0  0  0  0  0  0  0  0  0  0  0
    3.5510    3.0555   -0.0000 C   0  0  0  0  0  0  0  0  0  0  0  0
   -0.0590    4.5302   -0.0000 C   0  0  0  0  0  0  0  0  0  0  0  0
    2.6662    4.2589   -0.0000 C   0  0  0  0  0  0  0  0  0  0  0  0
   -2.6308    4.5184   -0.0000 C   0  0  0  0  0  0  0  0  0  0  0  0
   -2.6426    6.0167   -0.0000 O   0  0  0  0  0  0  0  0  0  0  0  0
   -3.9286    3.7870   -0.0000 C   0  0  0  0  0  0  0  0  0  0  0  0
   -4.0937    2.3123   -0.0000 C   0  0  0  0  0  0  0  0  0  0  0  0
   -5.3089    4.4005   -0.0000 C   0  0  0  0  0  0  0  0  0  0  0  0
   -4.3415    5.2499   -0.0000 C   0  0  0  0  0  0  0  0  0  0  0  0
   -5.5684    2.0174   -0.0000 N   0  0  0  0  0  0  0  0  0  0  0  0
   -6.3235    3.3033   -0.0000 C   0  0  0  0  0  0  0  0  0  0  0  0
   -5.7926    5.6392   -0.0000 O   0  0  0  0  0  0  0  0  0  0  0  0
   -6.1937    7.0903   -0.0000 C   0  0  0  0  0  0  0  0  0  0  0  0
   -7.6448    7.4796   -0.0000 C   0  0  0  0  0  0  0  0  0  0  0  0
  1  2  1  0
  2  3  2  0
  2  4  1  0
  3  5  1  0
  3  6  1  0
  4  7  2  0
  5  8  1  0
  6  9  2  0
  6 10  1  0
  7 11  1  0
 11 12  2  0
 11 13  1  0
 13 14  1  0
 13 15  1  0
 13 16  1  0
 14 17  1  0
 15 18  1  0
 16 19  1  0
 19 20  1  0
 20 21  1  0
  7  9  1  0
  8 10  2  0
 17 18  1  0
M  END
>  <MolRegNo>  (1) 
690948

>  <m>  (1) 
=

>  <Value>  (1) 
4100

>  <Unit>  (1) 
nM

>  <Type>  (1) 
IC50

>  <pValue>  (1) 
5.39

>  <Ligand Efficiency>  (1) 
0

>  <Binding Efficiency>  (1) 
0

>  <Surface Efficiency>  (1) 
0

>  <Assay Index>  (1) 
497257

>  <Assay Category>  (1) 


>  <Assay Organism>  (1) 


>  <Target ID>  (1) 
11365

>  <Target Name>  (1) 
Cytochrome P450 2D6

>  <Target Organism>  (1) 
Homo sapiens

>  <Target Description>  (1) 
Target is a single protein chain

>  <Sequence Accession>  (1) 
P10635

>  <Reference>  (1) 
Bioorg Med Chem Lett 20 (18), 5559-5566 (2010)

>  <Pubmed ID>  (1) 
20691589

>  <DOI>  (1) 
10.1016/j.bmcl.2010.07.020

$$$$
