4wnv_ligand_342
     RDKit          2D

 29 31  0  0  1  0  0  0  0  0999 V2000
    0.0000   -0.0000   -0.0000 O   0  0  0  0  0  0  0  0  0  0  0  0
   -0.0119   -1.4859   -0.0000 C   0  0  0  0  0  0  0  0  0  0  0  0
    1.2719   -2.2228   -0.0000 N   0  0  0  0  0  0  0  0  0  0  0  0
   -1.3194   -2.2228   -0.0000 C   0  0  0  0  0  0  0  0  0  0  0  0
    2.5557   -1.4621   -0.0000 C   0  0  0  0  0  0  0  0  0  0  0  0
    1.2600   -3.7087   -0.0000 C   0  0  0  0  0  0  0  0  0  0  0  0
   -2.6270   -1.4621   -0.0000 C   0  0  0  0  0  0  0  0  0  0  0  0
    2.5438    0.0475   -0.0000 C   0  0  0  0  0  0  0  0  0  0  0  0
    3.8394   -2.1991   -0.0000 C   0  0  0  0  0  0  0  0  0  0  0  0
   -2.6389    0.0475   -0.0000 O   0  0  0  0  0  0  0  0  0  0  0  0
   -3.9345   -2.1991   -0.0000 N   0  0  0  0  0  0  0  0  0  0  0  0
    1.2362    0.8083   -0.0000 C   0  0  0  0  0  0  0  0  0  0  0  0
    3.8394    0.8083   -0.0000 C   0  0  0  0  0  0  0  0  0  0  0  0
    5.1232   -1.4383   -0.0000 N   0  0  0  0  0  0  0  0  0  0  0  0
   -5.2421   -1.4383   -0.0000 C   0  0  0  0  0  0  0  0  0  0  0  0
    1.2243    2.3298   -0.0000 C   0  0  0  0  0  0  0  0  0  0  0  0
    3.8276    2.3298   -0.0000 C   0  0  0  0  0  0  0  0  0  0  0  0
    6.4783   -2.0326   -0.0000 C   0  0  0  0  0  0  0  0  0  0  0  0
    5.2659    0.0713   -0.0000 C   0  0  0  0  0  0  0  0  0  0  0  0
   -6.5496   -2.1753   -0.0000 C   0  0  0  0  0  0  0  0  0  0  0  0
    2.5081    3.0906   -0.0000 C   0  0  0  0  0  0  0  0  0  0  0  0
    7.4649   -0.9034   -0.0000 C   0  0  0  0  0  0  0  0  0  0  0  0
    6.7160    0.3923   -0.0000 C   0  0  0  0  0  0  0  0  0  0  0  0
   -7.8572   -1.4026   -0.0000 C   0  0  0  0  0  0  0  0  0  0  0  0
   -6.5496   -3.6493   -0.0000 C   0  0  0  0  0  0  0  0  0  0  0  0
    8.9389   -1.0460   -0.0000 O   0  0  0  0  0  0  0  0  0  0  0  0
   -9.1647   -2.1396   -0.0000 C   0  0  0  0  0  0  0  0  0  0  0  0
   -7.8572   -4.3862   -0.0000 C   0  0  0  0  0  0  0  0  0  0  0  0
   -9.1766   -3.6255   -0.0000 C   0  0  0  0  0  0  0  0  0  0  0  0
  1  2  2  0
  2  3  1  0
  2  4  1  0
  5  3  1  0
  3  6  1  0
  4  7  1  0
  5  8  1  0
  5  9  1  1
  7 10  2  0
  7 11  1  0
  8 12  2  0
  8 13  1  0
  9 14  1  0
 11 15  1  0
 12 16  1  0
 13 17  2  0
 14 18  1  0
 14 19  1  0
 15 20  1  0
 16 21  2  0
 18 22  1  0
 19 23  1  0
 20 24  2  0
 20 25  1  0
 22 26  1  6
 24 27  1  0
 25 28  2  0
 27 29  2  0
 17 21  1  0
 22 23  1  0
 28 29  1  0
M  END
>  <MolRegNo>  (1) 
384324

>  <m>  (1) 
=

>  <Value>  (1) 
3200

>  <Unit>  (1) 
nM

>  <Type>  (1) 
IC50

>  <pValue>  (1) 
5.5

>  <Ligand Efficiency>  (1) 
0

>  <Binding Efficiency>  (1) 
0

>  <Surface Efficiency>  (1) 
0

>  <Assay Index>  (1) 
287299

>  <Assay Category>  (1) 


>  <Assay Organism>  (1) 


>  <Target ID>  (1) 
11365

>  <Target Name>  (1) 
Cytochrome P450 2D6

>  <Target Organism>  (1) 
Homo sapiens

>  <Target Description>  (1) 
Target is a single protein chain

>  <Sequence Accession>  (1) 
P10635

>  <Reference>  (1) 
Bioorg Med Chem Lett 17 (7), 1951-1955 (2007)

>  <Pubmed ID>  (1) 
17307360

>  <DOI>  (1) 
10.1016/j.bmcl.2007.01.053

$$$$
