4wnv_ligand_323
     RDKit          2D

 34 38  0  0  0  0  0  0  0  0999 V2000
    0.0000   -0.0000   -0.0000 F   0  0  0  0  0  0  0  0  0  0  0  0
   -1.4338   -0.4503   -0.0000 C   0  0  0  0  0  0  0  0  0  0  0  0
   -2.5594    0.5569   -0.0000 C   0  0  0  0  0  0  0  0  0  0  0  0
   -1.7655   -1.9077   -0.0000 C   0  0  0  0  0  0  0  0  0  0  0  0
   -3.9813    0.1066   -0.0000 C   0  0  0  0  0  0  0  0  0  0  0  0
   -3.2111   -2.3461   -0.0000 C   0  0  0  0  0  0  0  0  0  0  0  0
   -4.3250   -1.3390   -0.0000 C   0  0  0  0  0  0  0  0  0  0  0  0
   -5.0952    1.1257   -0.0000 C   0  0  0  0  0  0  0  0  0  0  0  0
   -6.5289    0.6873   -0.0000 N   0  0  0  0  0  0  0  0  0  0  0  0
   -6.8607   -0.7583   -0.0000 C   0  0  0  0  0  0  0  0  0  0  0  0
   -7.6546    1.7063   -0.0000 C   0  0  0  0  0  0  0  0  0  0  0  0
   -8.2944   -1.1968   -0.0000 C   0  0  0  0  0  0  0  0  0  0  0  0
   -9.1002    1.2560   -0.0000 C   0  0  0  0  0  0  0  0  0  0  0  0
   -9.4201   -0.1777   -0.0000 C   0  0  0  0  0  0  0  0  0  0  0  0
  -10.8539   -0.6280   -0.0000 N   0  0  0  0  0  0  0  0  0  0  0  0
  -12.0862    0.2607   -0.0000 C   0  0  0  0  0  0  0  0  0  0  0  0
  -11.3278   -2.0381   -0.0000 C   0  0  0  0  0  0  0  0  0  0  0  0
  -12.0980    1.7655   -0.0000 O   0  0  0  0  0  0  0  0  0  0  0  0
  -13.3067   -0.6162   -0.0000 N   0  0  0  0  0  0  0  0  0  0  0  0
  -12.8327   -2.0262   -0.0000 C   0  0  0  0  0  0  0  0  0  0  0  0
  -12.5602   -3.4837   -0.0000 C   0  0  0  0  0  0  0  0  0  0  0  0
  -14.3494   -2.0025   -0.0000 C   0  0  0  0  0  0  0  0  0  0  0  0
  -13.6977   -4.4435   -0.0000 C   0  0  0  0  0  0  0  0  0  0  0  0
  -11.1620   -3.9458   -0.0000 C   0  0  0  0  0  0  0  0  0  0  0  0
  -15.1077   -0.6754   -0.0000 C   0  0  0  0  0  0  0  0  0  0  0  0
  -15.1077   -3.2822   -0.0000 C   0  0  0  0  0  0  0  0  0  0  0  0
  -13.4251   -5.9009   -0.0000 C   0  0  0  0  0  0  0  0  0  0  0  0
  -10.8776   -5.3914   -0.0000 C   0  0  0  0  0  0  0  0  0  0  0  0
  -16.6244   -0.6517   -0.0000 C   0  0  0  0  0  0  0  0  0  0  0  0
  -16.6244   -3.2704   -0.0000 C   0  0  0  0  0  0  0  0  0  0  0  0
  -12.0269   -6.3749   -0.0000 C   0  0  0  0  0  0  0  0  0  0  0  0
  -17.3946   -1.9433   -0.0000 C   0  0  0  0  0  0  0  0  0  0  0  0
  -11.7544   -7.8323   -0.0000 F   0  0  0  0  0  0  0  0  0  0  0  0
  -18.8995   -1.9314   -0.0000 F   0  0  0  0  0  0  0  0  0  0  0  0
  1  2  1  0
  2  3  2  0
  2  4  1  0
  3  5  1  0
  4  6  2  0
  5  7  2  0
  5  8  1  0
  8  9  1  0
  9 10  1  0
  9 11  1  0
 10 12  1  0
 11 13  1  0
 12 14  1  0
 14 15  1  0
 15 16  1  0
 15 17  1  0
 16 18  2  0
 16 19  1  0
 17 20  1  0
 20 21  1  0
 20 22  1  0
 21 23  2  0
 21 24  1  0
 22 25  2  0
 22 26  1  0
 23 27  1  0
 24 28  2  0
 25 29  1  0
 26 30  2  0
 27 31  2  0
 29 32  2  0
 31 33  1  0
 32 34  1  0
  6  7  1  0
 13 14  1  0
 19 20  1  0
 28 31  1  0
 30 32  1  0
M  END
>  <MolRegNo>  (1) 
371491

>  <m>  (1) 
=

>  <Value>  (1) 
12000

>  <Unit>  (1) 
nM

>  <Type>  (1) 
IC50

>  <pValue>  (1) 
4.92

>  <Ligand Efficiency>  (1) 
0

>  <Binding Efficiency>  (1) 
0

>  <Surface Efficiency>  (1) 
0

>  <Assay Index>  (1) 
278051

>  <Assay Category>  (1) 


>  <Assay Organism>  (1) 
Homo sapiens

>  <Target ID>  (1) 
11365

>  <Target Name>  (1) 
Cytochrome P450 2D6

>  <Target Organism>  (1) 
Homo sapiens

>  <Target Description>  (1) 
Target is a single protein chain

>  <Sequence Accession>  (1) 
P10635

>  <Reference>  (1) 
J Med Chem 50 (7), 1571-1583 (2007)

>  <Pubmed ID>  (1) 
17352462

>  <DOI>  (1) 
10.1021/jm061159a

$$$$
