4wnv_ligand_257
     RDKit          2D

 28 31  0  0  0  0  0  0  0  0999 V2000
    0.0000   -0.0000   -0.0000 O   0  0  0  0  0  0  0  0  0  0  0  0
    1.2759    0.7679   -0.0000 C   0  0  0  0  0  0  0  0  0  0  0  0
   -1.3113    0.7442   -0.0000 C   0  0  0  0  0  0  0  0  0  0  0  0
    2.5753    0.0354   -0.0000 C   0  0  0  0  0  0  0  0  0  0  0  0
    1.2522    2.2682   -0.0000 C   0  0  0  0  0  0  0  0  0  0  0  0
   -2.6108   -0.0000   -0.0000 C   0  0  0  0  0  0  0  0  0  0  0  0
    3.8512    0.8033   -0.0000 C   0  0  0  0  0  0  0  0  0  0  0  0
    2.5281    3.0479   -0.0000 C   0  0  0  0  0  0  0  0  0  0  0  0
   -3.9221    0.7679   -0.0000 C   0  0  0  0  0  0  0  0  0  0  0  0
    3.8276    2.3154   -0.0000 C   0  0  0  0  0  0  0  0  0  0  0  0
   -5.2334    0.0354   -0.0000 N   0  0  0  0  0  0  0  0  0  0  0  0
    5.1034    3.0951   -0.0000 N   0  0  0  0  0  0  0  0  0  0  0  0
   -5.2452   -1.4531   -0.0000 C   0  0  0  0  0  0  0  0  0  0  0  0
   -6.5328    0.7915   -0.0000 C   0  0  0  0  0  0  0  0  0  0  0  0
    6.3911    2.3627   -0.0000 C   0  0  0  0  0  0  0  0  0  0  0  0
    5.0680    4.6072   -0.0000 C   0  0  0  0  0  0  0  0  0  0  0  0
   -6.5447   -2.1855   -0.0000 C   0  0  0  0  0  0  0  0  0  0  0  0
   -7.8441    0.0591   -0.0000 C   0  0  0  0  0  0  0  0  0  0  0  0
    7.6669    3.1306   -0.0000 C   0  0  0  0  0  0  0  0  0  0  0  0
    6.3556    5.3751   -0.0000 C   0  0  0  0  0  0  0  0  0  0  0  0
   -7.8559   -1.4294   -0.0000 C   0  0  0  0  0  0  0  0  0  0  0  0
    7.6433    4.6427   -0.0000 C   0  0  0  0  0  0  0  0  0  0  0  0
   -9.1672   -2.1619   -0.0000 C   0  0  0  0  0  0  0  0  0  0  0  0
  -10.4667   -1.4058   -0.0000 C   0  0  0  0  0  0  0  0  0  0  0  0
  -11.8489   -2.0083   -0.0000 N   0  0  0  0  0  0  0  0  0  0  0  0
  -10.6439    0.0945   -0.0000 C   0  0  0  0  0  0  0  0  0  0  0  0
  -12.8648   -0.8742   -0.0000 C   0  0  0  0  0  0  0  0  0  0  0  0
  -12.1206    0.4135   -0.0000 N   0  0  0  0  0  0  0  0  0  0  0  0
  1  2  1  0
  1  3  1  0
  2  4  2  0
  2  5  1  0
  3  6  1  0
  4  7  1  0
  5  8  2  0
  6  9  1  0
  7 10  2  0
  9 11  1  0
 10 12  1  0
 11 13  1  0
 11 14  1  0
 12 15  1  0
 12 16  1  0
 13 17  1  0
 14 18  1  0
 15 19  1  0
 16 20  1  0
 17 21  1  0
 19 22  1  0
 21 23  1  0
 23 24  1  0
 24 25  1  0
 24 26  2  0
 25 27  2  0
 26 28  1  0
  8 10  1  0
 18 21  1  0
 20 22  1  0
 27 28  1  0
M  END
>  <MolRegNo>  (1) 
339422

>  <m>  (1) 
=

>  <Value>  (1) 
1000

>  <Unit>  (1) 
nM

>  <Type>  (1) 
IC50

>  <pValue>  (1) 
6

>  <Ligand Efficiency>  (1) 
0

>  <Binding Efficiency>  (1) 
0

>  <Surface Efficiency>  (1) 
0

>  <Assay Index>  (1) 
257619

>  <Assay Category>  (1) 


>  <Assay Organism>  (1) 
Homo sapiens

>  <Target ID>  (1) 
11365

>  <Target Name>  (1) 
Cytochrome P450 2D6

>  <Target Organism>  (1) 
Homo sapiens

>  <Target Description>  (1) 
Target is a single protein chain

>  <Sequence Accession>  (1) 
P10635

>  <Reference>  (1) 
Bioorg Med Chem Lett 16 (4), 989-994 (2006)

>  <Pubmed ID>  (1) 
16297617

>  <DOI>  (1) 
10.1016/j.bmcl.2005.10.087

$$$$
