4wnv_ligand_359
     RDKit          2D

 29 32  0  0  1  0  0  0  0  0999 V2000
    0.0000   -0.0000   -0.0000 Cl  0  0  0  0  0  0  0  0  0  0  0  0
   -1.3105   -0.7320   -0.0000 C   0  0  0  0  0  0  0  0  0  0  0  0
   -1.3223   -2.2196   -0.0000 C   0  0  0  0  0  0  0  0  0  0  0  0
   -2.6211    0.0236   -0.0000 C   0  0  0  0  0  0  0  0  0  0  0  0
   -2.6329   -2.9517   -0.0000 C   0  0  0  0  0  0  0  0  0  0  0  0
   -3.9198   -0.7202   -0.0000 C   0  0  0  0  0  0  0  0  0  0  0  0
   -3.9316   -2.1842   -0.0000 C   0  0  0  0  0  0  0  0  0  0  0  0
   -5.2421   -2.9162   -0.0000 C   0  0  0  0  0  0  0  0  0  0  0  0
   -6.5409   -2.1606   -0.0000 C   0  0  0  0  0  0  0  0  0  0  0  0
   -5.2539   -4.4039   -0.0000 C   0  0  0  0  0  0  0  0  0  0  0  0
   -7.8396   -2.8926   -0.0000 C   0  0  0  0  0  0  0  0  0  0  0  0
   -6.5645   -5.1359   -0.0000 C   0  0  0  0  0  0  0  0  0  0  0  0
   -9.1501   -2.1370   -0.0000 C   0  0  0  0  0  0  0  0  0  0  0  0
   -7.8632   -4.3684   -0.0000 C   0  0  0  0  0  0  0  0  0  0  0  0
   -9.1619   -0.6258   -0.0000 O   0  0  0  0  0  0  0  0  0  0  0  0
  -10.4607   -2.8690   -0.0000 N   0  0  0  0  0  0  0  0  0  0  0  0
   -9.1619   -5.1123   -0.0000 N   0  0  0  0  0  0  0  0  0  0  0  0
  -10.4607   -4.3448   -0.0000 C   0  0  0  0  0  0  0  0  0  0  0  0
  -11.7712   -2.1134   -0.0000 C   0  0  0  0  0  0  0  0  0  0  0  0
  -11.7712   -5.0886   -0.0000 C   0  0  0  0  0  0  0  0  0  0  0  0
  -11.7830   -0.6021   -0.0000 C   0  0  0  0  0  0  0  0  0  0  0  0
  -10.4961    0.1653   -0.0000 C   0  0  0  0  0  0  0  0  0  0  0  0
  -13.0935    0.1535   -0.0000 C   0  0  0  0  0  0  0  0  0  0  0  0
  -10.5079    1.6647   -0.0000 N   0  0  0  0  0  0  0  0  0  0  0  0
  -13.1053    1.6647   -0.0000 C   0  0  0  0  0  0  0  0  0  0  0  0
   -9.2210    2.4204   -0.0000 C   0  0  0  0  0  0  0  0  0  0  0  0
  -11.8066    2.4322   -0.0000 C   0  0  0  0  0  0  0  0  0  0  0  0
   -7.9340    1.6883   -0.0000 C   0  0  0  0  0  0  0  0  0  0  0  0
   -9.2328    3.9316   -0.0000 C   0  0  0  0  0  0  0  0  0  0  0  0
  1  2  1  0
  2  3  2  0
  2  4  1  0
  3  5  1  0
  4  6  2  0
  5  7  2  0
  7  8  1  0
  8  9  2  0
  8 10  1  0
  9 11  1  0
 10 12  2  0
 11 13  1  0
 11 14  2  0
 13 15  2  0
 13 16  1  0
 14 17  1  0
 16 18  1  0
 16 19  1  0
 18 20  1  0
 21 19  1  1
 21 22  1  0
 21 23  1  0
 22 24  1  0
 23 25  1  0
 24 26  1  0
 24 27  1  0
 26 28  1  0
 26 29  1  0
  6  7  1  0
 12 14  1  0
 17 18  2  0
 25 27  1  0
M  END
>  <MolRegNo>  (1) 
389218

>  <m>  (1) 
=

>  <Value>  (1) 
9600

>  <Unit>  (1) 
nM

>  <Type>  (1) 
IC50

>  <pValue>  (1) 
5.02

>  <Ligand Efficiency>  (1) 
0

>  <Binding Efficiency>  (1) 
0

>  <Surface Efficiency>  (1) 
0

>  <Assay Index>  (1) 
295387

>  <Assay Category>  (1) 


>  <Assay Organism>  (1) 


>  <Target ID>  (1) 
11365

>  <Target Name>  (1) 
Cytochrome P450 2D6

>  <Target Organism>  (1) 
Homo sapiens

>  <Target Description>  (1) 
Target is a single protein chain

>  <Sequence Accession>  (1) 
P10635

>  <Reference>  (1) 
J Med Chem 50 (21), 5202-5216 (2007)

>  <Pubmed ID>  (1) 
17887659

>  <DOI>  (1) 
10.1021/jm070071+

$$$$
