4wnv_ligand_945
     RDKit          2D

 20 22  0  0  0  0  0  0  0  0999 V2000
    0.0000   -0.0000   -0.0000 Cl  0  0  0  0  0  0  0  0  0  0  0  0
   -0.0477   -1.4919   -0.0000 C   0  0  0  0  0  0  0  0  0  0  0  0
    1.2293   -2.2558   -0.0000 C   0  0  0  0  0  0  0  0  0  0  0  0
   -1.3845   -2.2081   -0.0000 C   0  0  0  0  0  0  0  0  0  0  0  0
    1.1816   -3.7597   -0.0000 C   0  0  0  0  0  0  0  0  0  0  0  0
   -1.4203   -3.7119   -0.0000 C   0  0  0  0  0  0  0  0  0  0  0  0
    2.4587   -4.5235   -0.0000 N   0  0  0  0  0  0  0  0  0  0  0  0
   -0.1432   -4.4758   -0.0000 C   0  0  0  0  0  0  0  0  0  0  0  0
    3.6642   -3.6164   -0.0000 C   0  0  0  0  0  0  0  0  0  0  0  0
    2.9122   -5.9438   -0.0000 C   0  0  0  0  0  0  0  0  0  0  0  0
    3.6522   -2.1006   -0.0000 O   0  0  0  0  0  0  0  0  0  0  0  0
    4.8816   -4.4997   -0.0000 N   0  0  0  0  0  0  0  0  0  0  0  0
    4.4042   -5.9319   -0.0000 C   0  0  0  0  0  0  0  0  0  0  0  0
    6.1825   -3.7358   -0.0000 C   0  0  0  0  0  0  0  0  0  0  0  0
    7.4716   -4.4877   -0.0000 C   0  0  0  0  0  0  0  0  0  0  0  0
    8.7606   -3.7239   -0.0000 N   0  0  0  0  0  0  0  0  0  0  0  0
    7.4477   -5.9916   -0.0000 C   0  0  0  0  0  0  0  0  0  0  0  0
   10.0496   -4.4758   -0.0000 C   0  0  0  0  0  0  0  0  0  0  0  0
    8.7367   -6.7435   -0.0000 C   0  0  0  0  0  0  0  0  0  0  0  0
   10.0258   -5.9796   -0.0000 C   0  0  0  0  0  0  0  0  0  0  0  0
  1  2  1  0
  2  3  2  0
  2  4  1  0
  3  5  1  0
  4  6  2  0
  5  7  1  0
  5  8  2  0
  7  9  1  0
  7 10  1  0
  9 11  2  0
  9 12  1  0
 10 13  1  0
 12 14  1  0
 14 15  1  0
 15 16  1  0
 15 17  1  0
 16 18  1  0
 17 19  1  0
 18 20  1  0
  6  8  1  0
 12 13  1  0
 19 20  1  0
M  END
>  <MolRegNo>  (1) 
615537

>  <m>  (1) 
=

>  <Value>  (1) 
1000

>  <Unit>  (1) 
nM

>  <Type>  (1) 
IC50

>  <pValue>  (1) 
6

>  <Ligand Efficiency>  (1) 
0

>  <Binding Efficiency>  (1) 
0

>  <Surface Efficiency>  (1) 
0

>  <Assay Index>  (1) 
459688

>  <Assay Category>  (1) 


>  <Assay Organism>  (1) 
Homo sapiens

>  <Target ID>  (1) 
11365

>  <Target Name>  (1) 
Cytochrome P450 2D6

>  <Target Organism>  (1) 
Homo sapiens

>  <Target Description>  (1) 
Target is a single protein chain

>  <Sequence Accession>  (1) 
P10635

>  <Reference>  (1) 
Bioorg Med Chem Lett 20 (6), 2013-2016 (2010)

>  <Pubmed ID>  (1) 
20153647

>  <DOI>  (1) 
10.1016/j.bmcl.2010.01.090

$$$$
