4wnv_ligand_758
     RDKit          2D

 26 29  0  0  0  0  0  0  0  0999 V2000
    0.0000   -0.0000   -0.0000 O   0  0  0  0  0  0  0  0  0  0  0  0
    0.1434   -1.4819   -0.0000 C   0  0  0  0  0  0  0  0  0  0  0  0
   -1.4819    0.3227   -0.0000 C   0  0  0  0  0  0  0  0  0  0  0  0
    1.4341   -2.2109   -0.0000 C   0  0  0  0  0  0  0  0  0  0  0  0
   -1.2429   -2.0795   -0.0000 C   0  0  0  0  0  0  0  0  0  0  0  0
   -2.2468   -0.9680   -0.0000 C   0  0  0  0  0  0  0  0  0  0  0  0
    2.7129   -1.4461   -0.0000 C   0  0  0  0  0  0  0  0  0  0  0  0
    1.4222   -3.7048   -0.0000 C   0  0  0  0  0  0  0  0  0  0  0  0
    4.0155   -2.1751   -0.0000 N   0  0  0  0  0  0  0  0  0  0  0  0
    2.7129   -4.4457   -0.0000 C   0  0  0  0  0  0  0  0  0  0  0  0
    4.0036   -3.6809   -0.0000 C   0  0  0  0  0  0  0  0  0  0  0  0
    5.4496   -1.6970   -0.0000 C   0  0  0  0  0  0  0  0  0  0  0  0
    2.7009   -5.9396   -0.0000 N   0  0  0  0  0  0  0  0  0  0  0  0
    5.4377   -4.1350   -0.0000 N   0  0  0  0  0  0  0  0  0  0  0  0
    6.3340   -2.9160   -0.0000 C   0  0  0  0  0  0  0  0  0  0  0  0
    5.9038   -0.2510   -0.0000 C   0  0  0  0  0  0  0  0  0  0  0  0
    1.3863   -6.6806   -0.0000 C   0  0  0  0  0  0  0  0  0  0  0  0
    7.8279   -2.9041   -0.0000 C   0  0  0  0  0  0  0  0  0  0  0  0
    1.3744   -8.1744   -0.0000 C   0  0  0  0  0  0  0  0  0  0  0  0
    0.0598   -8.9034   -0.0000 C   0  0  0  0  0  0  0  0  0  0  0  0
    2.6651   -8.9034   -0.0000 C   0  0  0  0  0  0  0  0  0  0  0  0
    0.0478  -10.3973   -0.0000 C   0  0  0  0  0  0  0  0  0  0  0  0
   -1.2548   -8.1386   -0.0000 C   0  0  0  0  0  0  0  0  0  0  0  0
    2.6531  -10.3973   -0.0000 C   0  0  0  0  0  0  0  0  0  0  0  0
    3.9558   -8.1386   -0.0000 C   0  0  0  0  0  0  0  0  0  0  0  0
    1.3385  -11.1383   -0.0000 C   0  0  0  0  0  0  0  0  0  0  0  0
  1  2  1  0
  1  3  1  0
  2  4  1  0
  2  5  2  0
  3  6  2  0
  4  7  2  0
  4  8  1  0
  7  9  1  0
  8 10  2  0
  9 11  1  0
  9 12  1  0
 10 13  1  0
 11 14  2  0
 12 15  2  0
 12 16  1  0
 13 17  1  0
 15 18  1  0
 17 19  1  0
 19 20  2  0
 19 21  1  0
 20 22  1  0
 20 23  1  0
 21 24  2  0
 21 25  1  0
 22 26  2  0
  5  6  1  0
 10 11  1  0
 14 15  1  0
 24 26  1  0
M  END
>  <MolRegNo>  (1) 
501673

>  <m>  (1) 
=

>  <Value>  (1) 
2200

>  <Unit>  (1) 
nM

>  <Type>  (1) 
IC50

>  <pValue>  (1) 
5.66

>  <Ligand Efficiency>  (1) 
0

>  <Binding Efficiency>  (1) 
0

>  <Surface Efficiency>  (1) 
0

>  <Assay Index>  (1) 
368751

>  <Assay Category>  (1) 


>  <Assay Organism>  (1) 


>  <Target ID>  (1) 
11365

>  <Target Name>  (1) 
Cytochrome P450 2D6

>  <Target Organism>  (1) 
Homo sapiens

>  <Target Description>  (1) 
Target is a single protein chain

>  <Sequence Accession>  (1) 
P10635

>  <Reference>  (1) 
Bioorg Med Chem Lett 19 (13), 3602-3606 (2009)

>  <Pubmed ID>  (1) 
19467868

>  <DOI>  (1) 
10.1016/j.bmcl.2009.04.127

$$$$
