4wnv_ligand_9
     RDKit          2D

 45 48  0  0  0  0  0  0  0  0999 V2000
    0.0000   -0.0000   -0.0000 S   0  0  0  0  0  0  0  0  0  0  0  0
    1.2797    0.7678   -0.0000 C   0  0  0  0  0  0  0  0  0  0  0  0
   -1.3162    0.7556   -0.0000 C   0  0  0  0  0  0  0  0  0  0  0  0
    1.2553    2.2791   -0.0000 N   0  0  0  0  0  0  0  0  0  0  0  0
    2.5594    0.0244   -0.0000 N   0  0  0  0  0  0  0  0  0  0  0  0
   -2.6203    0.0122   -0.0000 C   0  0  0  0  0  0  0  0  0  0  0  0
    2.5472    3.0469   -0.0000 C   0  0  0  0  0  0  0  0  0  0  0  0
    3.8391    0.7922   -0.0000 C   0  0  0  0  0  0  0  0  0  0  0  0
    2.5472   -1.4625   -0.0000 C   0  0  0  0  0  0  0  0  0  0  0  0
   -3.9487    0.7800   -0.0000 C   0  0  0  0  0  0  0  0  0  0  0  0
   -2.6325   -1.4991   -0.0000 C   0  0  0  0  0  0  0  0  0  0  0  0
    2.5350    4.5581   -0.0000 O   0  0  0  0  0  0  0  0  0  0  0  0
    3.8269    2.3034   -0.0000 C   0  0  0  0  0  0  0  0  0  0  0  0
    3.8512   -2.2059   -0.0000 C   0  0  0  0  0  0  0  0  0  0  0  0
   -5.2528    0.0244   -0.0000 C   0  0  0  0  0  0  0  0  0  0  0  0
   -3.9609   -2.2425   -0.0000 C   0  0  0  0  0  0  0  0  0  0  0  0
    5.1309    3.0712   -0.0000 C   0  0  0  0  0  0  0  0  0  0  0  0
    5.1309   -1.4381   -0.0000 O   0  0  0  0  0  0  0  0  0  0  0  0
    3.8391   -3.6928   -0.0000 N   0  0  0  0  0  0  0  0  0  0  0  0
   -5.2650   -1.4625   -0.0000 C   0  0  0  0  0  0  0  0  0  0  0  0
    5.1309   -4.4362   -0.0000 C   0  0  0  0  0  0  0  0  0  0  0  0
    2.5350   -4.4362   -0.0000 C   0  0  0  0  0  0  0  0  0  0  0  0
   -6.5690   -2.2059   -0.0000 F   0  0  0  0  0  0  0  0  0  0  0  0
    6.4106   -3.6684   -0.0000 C   0  0  0  0  0  0  0  0  0  0  0  0
    1.2066   -3.6684   -0.0000 C   0  0  0  0  0  0  0  0  0  0  0  0
    6.3862   -2.1572   -0.0000 C   0  0  0  0  0  0  0  0  0  0  0  0
    7.6903   -4.4119   -0.0000 C   0  0  0  0  0  0  0  0  0  0  0  0
   -0.0975   -4.4119   -0.0000 N   0  0  0  0  0  0  0  0  0  0  0  0
    7.6537   -1.3894   -0.0000 C   0  0  0  0  0  0  0  0  0  0  0  0
    8.9700   -3.6441   -0.0000 C   0  0  0  0  0  0  0  0  0  0  0  0
   -0.1097   -5.8987   -0.0000 C   0  0  0  0  0  0  0  0  0  0  0  0
   -1.4016   -3.6562   -0.0000 C   0  0  0  0  0  0  0  0  0  0  0  0
    8.9578   -2.1328   -0.0000 C   0  0  0  0  0  0  0  0  0  0  0  0
   -1.4137   -6.6422   -0.0000 C   0  0  0  0  0  0  0  0  0  0  0  0
   -2.7056   -4.3997   -0.0000 C   0  0  0  0  0  0  0  0  0  0  0  0
   10.2375   -1.3650   -0.0000 C   0  0  0  0  0  0  0  0  0  0  0  0
   10.2131    0.1462   -0.0000 C   0  0  0  0  0  0  0  0  0  0  0  0
   11.5172   -2.1084   -0.0000 C   0  0  0  0  0  0  0  0  0  0  0  0
   11.4806    0.9141   -0.0000 C   0  0  0  0  0  0  0  0  0  0  0  0
   12.7968   -1.3406   -0.0000 C   0  0  0  0  0  0  0  0  0  0  0  0
   12.7847    0.1706   -0.0000 C   0  0  0  0  0  0  0  0  0  0  0  0
   14.0643    0.9506   -0.0000 C   0  0  0  0  0  0  0  0  0  0  0  0
   15.2222    1.6453   -0.0000 F   0  0  0  0  0  0  0  0  0  0  0  0
   15.5147    0.4144   -0.0000 F   0  0  0  0  0  0  0  0  0  0  0  0
   14.2959    2.5106   -0.0000 F   0  0  0  0  0  0  0  0  0  0  0  0
  1  2  1  0
  1  3  1  0
  2  4  2  0
  2  5  1  0
  3  6  1  0
  4  7  1  0
  5  8  1  0
  5  9  1  0
  6 10  2  0
  6 11  1  0
  7 12  2  0
  7 13  1  0
  9 14  1  0
 10 15  1  0
 11 16  2  0
 13 17  1  0
 14 18  2  0
 14 19  1  0
 15 20  2  0
 19 21  1  0
 19 22  1  0
 20 23  1  0
 21 24  1  0
 22 25  1  0
 24 26  2  0
 24 27  1  0
 25 28  1  0
 26 29  1  0
 27 30  2  0
 28 31  1  0
 28 32  1  0
 29 33  2  0
 31 34  1  0
 32 35  1  0
 33 36  1  0
 36 37  2  0
 36 38  1  0
 37 39  1  0
 38 40  2  0
 39 41  2  0
 41 42  1  0
 42 43  1  0
 42 44  1  0
 42 45  1  0
  8 13  2  0
 16 20  1  0
 30 33  1  0
 40 41  1  0
M  END
>  <MolRegNo>  (1) 
7570

>  <m>  (1) 
=

>  <Value>  (1) 
39000

>  <Unit>  (1) 
nM

>  <Type>  (1) 
IC50

>  <pValue>  (1) 
4.41

>  <Ligand Efficiency>  (1) 
0

>  <Binding Efficiency>  (1) 
0

>  <Surface Efficiency>  (1) 
0

>  <Assay Index>  (1) 
51652

>  <Assay Category>  (1) 


>  <Assay Organism>  (1) 


>  <Target ID>  (1) 
11365

>  <Target Name>  (1) 
Cytochrome P450 2D6

>  <Target Organism>  (1) 
Homo sapiens

>  <Target Description>  (1) 
Target is a single protein chain

>  <Sequence Accession>  (1) 
P10635

>  <Reference>  (1) 
Bioorg Med Chem Lett 13 (6), 1067-1070 (2003)

>  <Pubmed ID>  (1) 
12643913

>  <DOI>  (1) 
10.1016/s0960-894x(03)00058-1

$$$$
