4wnv_ligand_238
     RDKit          2D

 28 30  0  0  1  0  0  0  0  0999 V2000
    0.0000   -0.0000   -0.0000 O   0  0  0  0  0  0  0  0  0  0  0  0
   -0.0119   -1.4869   -0.0000 C   0  0  0  0  0  0  0  0  0  0  0  0
    1.2728   -2.2245   -0.0000 N   0  0  0  0  0  0  0  0  0  0  0  0
   -1.3204   -2.2245   -0.0000 C   0  0  0  0  0  0  0  0  0  0  0  0
    2.5575   -1.4632   -0.0000 C   0  0  0  0  0  0  0  0  0  0  0  0
    1.2609   -3.7114   -0.0000 C   0  0  0  0  0  0  0  0  0  0  0  0
   -2.6289   -1.4632   -0.0000 N   0  0  0  0  0  0  0  0  0  0  0  0
    2.5456    0.0476   -0.0000 C   0  0  0  0  0  0  0  0  0  0  0  0
    3.8423   -2.2007   -0.0000 C   0  0  0  0  0  0  0  0  0  0  0  0
   -3.9374   -2.2007   -0.0000 C   0  0  0  0  0  0  0  0  0  0  0  0
    3.8304    0.8089   -0.0000 C   0  0  0  0  0  0  0  0  0  0  0  0
    1.2371    0.7970   -0.0000 C   0  0  0  0  0  0  0  0  0  0  0  0
    5.1270   -1.4394   -0.0000 N   0  0  0  0  0  0  0  0  0  0  0  0
   -5.2459   -1.4394   -0.0000 C   0  0  0  0  0  0  0  0  0  0  0  0
   -3.9493   -3.6995   -0.0000 C   0  0  0  0  0  0  0  0  0  0  0  0
    3.8185    2.3196   -0.0000 C   0  0  0  0  0  0  0  0  0  0  0  0
    1.2133    2.3077   -0.0000 C   0  0  0  0  0  0  0  0  0  0  0  0
    6.4831   -2.0341   -0.0000 C   0  0  0  0  0  0  0  0  0  0  0  0
    5.2697    0.0595   -0.0000 C   0  0  0  0  0  0  0  0  0  0  0  0
   -6.5545   -2.1769   -0.0000 C   0  0  0  0  0  0  0  0  0  0  0  0
   -5.2697   -4.4370   -0.0000 C   0  0  0  0  0  0  0  0  0  0  0  0
    2.4981    3.0809   -0.0000 C   0  0  0  0  0  0  0  0  0  0  0  0
    7.4704   -0.9041   -0.0000 C   0  0  0  0  0  0  0  0  0  0  0  0
    6.7210    0.3926   -0.0000 C   0  0  0  0  0  0  0  0  0  0  0  0
   -6.5663   -3.6757   -0.0000 C   0  0  0  0  0  0  0  0  0  0  0  0
    8.9574   -1.0468   -0.0000 O   0  0  0  0  0  0  0  0  0  0  0  0
   -7.8749   -4.4133   -0.0000 C   0  0  0  0  0  0  0  0  0  0  0  0
   -9.1834   -5.1508   -0.0000 N   0  0  0  0  0  0  0  0  0  0  0  0
  1  2  2  0
  2  3  1  0
  2  4  1  0
  5  3  1  0
  3  6  1  0
  4  7  1  0
  5  8  1  0
  5  9  1  1
  7 10  1  0
  8 11  2  0
  8 12  1  0
  9 13  1  0
 10 14  2  0
 10 15  1  0
 11 16  1  0
 12 17  2  0
 13 18  1  0
 13 19  1  0
 14 20  1  0
 15 21  2  0
 16 22  2  0
 18 23  1  0
 19 24  1  0
 20 25  2  0
 23 26  1  6
 25 27  1  0
 27 28  3  0
 17 22  1  0
 21 25  1  0
 23 24  1  0
M  END
>  <MolRegNo>  (1) 
337774

>  <m>  (1) 
=

>  <Value>  (1) 
2500

>  <Unit>  (1) 
nM

>  <Type>  (1) 
IC50

>  <pValue>  (1) 
5.6

>  <Ligand Efficiency>  (1) 
0

>  <Binding Efficiency>  (1) 
0

>  <Surface Efficiency>  (1) 
0

>  <Assay Index>  (1) 
257094

>  <Assay Category>  (1) 


>  <Assay Organism>  (1) 
Homo sapiens

>  <Target ID>  (1) 
11365

>  <Target Name>  (1) 
Cytochrome P450 2D6

>  <Target Organism>  (1) 
Homo sapiens

>  <Target Description>  (1) 
Target is a single protein chain

>  <Sequence Accession>  (1) 
P10635

>  <Reference>  (1) 
Bioorg Med Chem Lett 16 (3), 645-648 (2006)

>  <Pubmed ID>  (1) 
16263278

>  <DOI>  (1) 
10.1016/j.bmcl.2005.10.034

$$$$
