4wnv_ligand_22
     RDKit          2D

 48 52  0  0  0  0  0  0  0  0999 V2000
    0.0000   -0.0000   -0.0000 S   0  0  0  0  0  0  0  0  0  0  0  0
    1.2808    0.7685   -0.0000 C   0  0  0  0  0  0  0  0  0  0  0  0
   -1.3051    0.7563   -0.0000 C   0  0  0  0  0  0  0  0  0  0  0  0
    1.2686    2.2810   -0.0000 N   0  0  0  0  0  0  0  0  0  0  0  0
    2.5859    0.0244   -0.0000 N   0  0  0  0  0  0  0  0  0  0  0  0
   -2.6103    0.0122   -0.0000 C   0  0  0  0  0  0  0  0  0  0  0  0
    2.5493    3.0494   -0.0000 C   0  0  0  0  0  0  0  0  0  0  0  0
    3.8667    0.7928   -0.0000 C   0  0  0  0  0  0  0  0  0  0  0  0
    2.5737   -1.4637   -0.0000 C   0  0  0  0  0  0  0  0  0  0  0  0
   -2.6225   -1.5003   -0.0000 C   0  0  0  0  0  0  0  0  0  0  0  0
   -3.9276    0.7806   -0.0000 C   0  0  0  0  0  0  0  0  0  0  0  0
    2.5371    4.5619   -0.0000 O   0  0  0  0  0  0  0  0  0  0  0  0
    3.8301    2.3054   -0.0000 C   0  0  0  0  0  0  0  0  0  0  0  0
    5.1352    0.0732   -0.0000 C   0  0  0  0  0  0  0  0  0  0  0  0
    3.8667   -2.2078   -0.0000 C   0  0  0  0  0  0  0  0  0  0  0  0
   -3.9398   -2.2200   -0.0000 C   0  0  0  0  0  0  0  0  0  0  0  0
   -5.2328    0.0244   -0.0000 C   0  0  0  0  0  0  0  0  0  0  0  0
    5.1108    3.0738   -0.0000 C   0  0  0  0  0  0  0  0  0  0  0  0
    6.4160    0.8172   -0.0000 C   0  0  0  0  0  0  0  0  0  0  0  0
    5.1474   -1.4393   -0.0000 O   0  0  0  0  0  0  0  0  0  0  0  0
    3.8545   -3.6959   -0.0000 N   0  0  0  0  0  0  0  0  0  0  0  0
   -5.2450   -1.4759   -0.0000 C   0  0  0  0  0  0  0  0  0  0  0  0
    6.3916    2.3541   -0.0000 C   0  0  0  0  0  0  0  0  0  0  0  0
    5.1352   -4.4399   -0.0000 C   0  0  0  0  0  0  0  0  0  0  0  0
    2.5493   -4.4399   -0.0000 C   0  0  0  0  0  0  0  0  0  0  0  0
   -6.5745   -2.1956   -0.0000 F   0  0  0  0  0  0  0  0  0  0  0  0
    6.4160   -3.6715   -0.0000 C   0  0  0  0  0  0  0  0  0  0  0  0
    1.2320   -3.6715   -0.0000 C   0  0  0  0  0  0  0  0  0  0  0  0
    7.6967   -4.4155   -0.0000 C   0  0  0  0  0  0  0  0  0  0  0  0
    6.4038   -2.1590   -0.0000 C   0  0  0  0  0  0  0  0  0  0  0  0
   -0.0732   -4.4155   -0.0000 N   0  0  0  0  0  0  0  0  0  0  0  0
    8.9775   -3.6471   -0.0000 C   0  0  0  0  0  0  0  0  0  0  0  0
    7.6845   -1.3905   -0.0000 C   0  0  0  0  0  0  0  0  0  0  0  0
   -1.4027   -3.6593   -0.0000 C   0  0  0  0  0  0  0  0  0  0  0  0
   -0.0854   -5.9037   -0.0000 C   0  0  0  0  0  0  0  0  0  0  0  0
    8.9653   -2.1346   -0.0000 C   0  0  0  0  0  0  0  0  0  0  0  0
   -2.7079   -4.4034   -0.0000 C   0  0  0  0  0  0  0  0  0  0  0  0
   -1.4149   -6.6477   -0.0000 C   0  0  0  0  0  0  0  0  0  0  0  0
   10.2460   -1.3661   -0.0000 C   0  0  0  0  0  0  0  0  0  0  0  0
   10.2338    0.1464   -0.0000 C   0  0  0  0  0  0  0  0  0  0  0  0
   11.5268   -2.1102   -0.0000 C   0  0  0  0  0  0  0  0  0  0  0  0
   11.5146    0.9148   -0.0000 C   0  0  0  0  0  0  0  0  0  0  0  0
   12.8319   -1.3417   -0.0000 C   0  0  0  0  0  0  0  0  0  0  0  0
   12.8075    0.1708   -0.0000 C   0  0  0  0  0  0  0  0  0  0  0  0
   14.0883    0.9514   -0.0000 C   0  0  0  0  0  0  0  0  0  0  0  0
   14.3322    2.5127   -0.0000 F   0  0  0  0  0  0  0  0  0  0  0  0
   15.2593    1.6467   -0.0000 F   0  0  0  0  0  0  0  0  0  0  0  0
   15.5520    0.4147   -0.0000 F   0  0  0  0  0  0  0  0  0  0  0  0
  1  2  1  0
  1  3  1  0
  2  4  2  0
  2  5  1  0
  3  6  1  0
  4  7  1  0
  5  8  1  0
  5  9  1  0
  6 10  2  0
  6 11  1  0
  7 12  2  0
  7 13  1  0
  8 14  1  0
  9 15  1  0
 10 16  1  0
 11 17  2  0
 13 18  1  0
 14 19  1  0
 15 20  2  0
 15 21  1  0
 16 22  2  0
 18 23  1  0
 21 24  1  0
 21 25  1  0
 22 26  1  0
 24 27  1  0
 25 28  1  0
 27 29  2  0
 27 30  1  0
 28 31  1  0
 29 32  1  0
 30 33  2  0
 31 34  1  0
 31 35  1  0
 32 36  2  0
 34 37  1  0
 35 38  1  0
 36 39  1  0
 39 40  2  0
 39 41  1  0
 40 42  1  0
 41 43  2  0
 42 44  2  0
 44 45  1  0
 45 46  1  0
 45 47  1  0
 45 48  1  0
  8 13  2  0
 17 22  1  0
 19 23  1  0
 33 36  1  0
 43 44  1  0
M  END
>  <MolRegNo>  (1) 
7572

>  <m>  (1) 
=

>  <Value>  (1) 
9000

>  <Unit>  (1) 
nM

>  <Type>  (1) 
IC50

>  <pValue>  (1) 
5.05

>  <Ligand Efficiency>  (1) 
0

>  <Binding Efficiency>  (1) 
0

>  <Surface Efficiency>  (1) 
0

>  <Assay Index>  (1) 
51652

>  <Assay Category>  (1) 


>  <Assay Organism>  (1) 


>  <Target ID>  (1) 
11365

>  <Target Name>  (1) 
Cytochrome P450 2D6

>  <Target Organism>  (1) 
Homo sapiens

>  <Target Description>  (1) 
Target is a single protein chain

>  <Sequence Accession>  (1) 
P10635

>  <Reference>  (1) 
Bioorg Med Chem Lett 13 (6), 1067-1070 (2003)

>  <Pubmed ID>  (1) 
12643913

>  <DOI>  (1) 
10.1016/s0960-894x(03)00058-1

$$$$
