4wnv_ligand_866
     RDKit          2D

 28 32  0  0  0  0  0  0  0  0999 V2000
    0.0000   -0.0000   -0.0000 F   0  0  0  0  0  0  0  0  0  0  0  0
   -1.0156   -1.0983   -0.0000 C   0  0  0  0  0  0  0  0  0  0  0  0
   -0.5669   -2.5155   -0.0000 C   0  0  0  0  0  0  0  0  0  0  0  0
   -2.4918   -0.7794   -0.0000 C   0  0  0  0  0  0  0  0  0  0  0  0
   -1.5825   -3.6138   -0.0000 C   0  0  0  0  0  0  0  0  0  0  0  0
   -3.5075   -1.8777   -0.0000 C   0  0  0  0  0  0  0  0  0  0  0  0
   -3.0587   -3.2949   -0.0000 C   0  0  0  0  0  0  0  0  0  0  0  0
   -4.0743   -4.3932   -0.0000 C   0  0  0  0  0  0  0  0  0  0  0  0
   -3.6256   -5.8104   -0.0000 N   0  0  0  0  0  0  0  0  0  0  0  0
   -4.5231   -7.0149   -0.0000 C   0  0  0  0  0  0  0  0  0  0  0  0
   -2.2084   -6.2591   -0.0000 C   0  0  0  0  0  0  0  0  0  0  0  0
   -3.6492   -8.2195   -0.0000 N   0  0  0  0  0  0  0  0  0  0  0  0
   -6.0347   -7.0031   -0.0000 N   0  0  0  0  0  0  0  0  0  0  0  0
   -2.2202   -7.7471   -0.0000 C   0  0  0  0  0  0  0  0  0  0  0  0
   -0.9212   -5.5033   -0.0000 C   0  0  0  0  0  0  0  0  0  0  0  0
   -6.7906   -8.2904   -0.0000 C   0  0  0  0  0  0  0  0  0  0  0  0
   -6.7906   -5.6923   -0.0000 C   0  0  0  0  0  0  0  0  0  0  0  0
   -0.9330   -8.4793   -0.0000 C   0  0  0  0  0  0  0  0  0  0  0  0
    0.3661   -6.2355   -0.0000 C   0  0  0  0  0  0  0  0  0  0  0  0
   -8.3022   -8.2786   -0.0000 C   0  0  0  0  0  0  0  0  0  0  0  0
   -8.3022   -5.6805   -0.0000 C   0  0  0  0  0  0  0  0  0  0  0  0
    0.3543   -7.7235   -0.0000 C   0  0  0  0  0  0  0  0  0  0  0  0
   -9.0698   -6.9677   -0.0000 C   0  0  0  0  0  0  0  0  0  0  0  0
  -10.5815   -6.9559   -0.0000 N   0  0  0  0  0  0  0  0  0  0  0  0
  -11.4790   -5.7277   -0.0000 N   0  0  0  0  0  0  0  0  0  0  0  0
  -11.4790   -8.1605   -0.0000 C   0  0  0  0  0  0  0  0  0  0  0  0
  -12.9198   -6.1765   -0.0000 C   0  0  0  0  0  0  0  0  0  0  0  0
  -12.9198   -7.6881   -0.0000 C   0  0  0  0  0  0  0  0  0  0  0  0
  1  2  1  0
  2  3  2  0
  2  4  1  0
  3  5  1  0
  4  6  2  0
  5  7  2  0
  7  8  1  0
  8  9  1  0
  9 10  1  0
  9 11  1  0
 10 12  2  0
 10 13  1  0
 11 14  2  0
 11 15  1  0
 13 16  1  0
 13 17  1  0
 14 18  1  0
 15 19  2  0
 16 20  1  0
 17 21  1  0
 18 22  2  0
 20 23  1  0
 23 24  1  0
 24 25  1  0
 24 26  1  0
 25 27  2  0
 26 28  2  0
  6  7  1  0
 12 14  1  0
 19 22  1  0
 21 23  1  0
 27 28  1  0
M  END
>  <MolRegNo>  (1) 
564683

>  <m>  (1) 
=

>  <Value>  (1) 
1480

>  <Unit>  (1) 
nM

>  <Type>  (1) 
IC50

>  <pValue>  (1) 
5.83

>  <Ligand Efficiency>  (1) 
0

>  <Binding Efficiency>  (1) 
0

>  <Surface Efficiency>  (1) 
0

>  <Assay Index>  (1) 
429822

>  <Assay Category>  (1) 


>  <Assay Organism>  (1) 


>  <Target ID>  (1) 
11365

>  <Target Name>  (1) 
Cytochrome P450 2D6

>  <Target Organism>  (1) 
Homo sapiens

>  <Target Description>  (1) 
Target is a single protein chain

>  <Sequence Accession>  (1) 
P10635

>  <Reference>  (1) 
Bioorg Med Chem Lett 19 (15), 4380-4384 (2009)

>  <Pubmed ID>  (1) 
19553115

>  <DOI>  (1) 
10.1016/j.bmcl.2009.05.086

$$$$
