4wnv_ligand_664
     RDKit          2D

 43 47  0  0  1  0  0  0  0  0999 V2000
    0.0000   -0.0000   -0.0000 F   0  0  0  0  0  0  0  0  0  0  0  0
   -0.0126   -1.4971   -0.0000 C   0  0  0  0  0  0  0  0  0  0  0  0
   -1.3336   -2.2394   -0.0000 C   0  0  0  0  0  0  0  0  0  0  0  0
    1.2832   -2.2394   -0.0000 C   0  0  0  0  0  0  0  0  0  0  0  0
   -1.3461   -3.7365   -0.0000 C   0  0  0  0  0  0  0  0  0  0  0  0
    1.2707   -3.7365   -0.0000 C   0  0  0  0  0  0  0  0  0  0  0  0
   -0.0503   -4.4787   -0.0000 C   0  0  0  0  0  0  0  0  0  0  0  0
   -2.6671   -4.4787   -0.0000 C   0  0  0  0  0  0  0  0  0  0  0  0
   -0.0629   -5.9758   -0.0000 C   0  0  0  0  0  0  0  0  0  0  0  0
   -2.6797   -5.9758   -0.0000 C   0  0  0  0  0  0  0  0  0  0  0  0
   -1.3839   -6.7181   -0.0000 C   0  0  0  0  0  0  0  0  0  0  0  0
   -1.3965   -8.2152   -0.0000 C   0  0  0  0  0  0  0  0  0  0  0  0
   -0.1006   -8.9575   -0.0000 N   0  0  0  0  0  0  0  0  0  0  0  0
    0.8303  -10.1149   -0.0000 C   0  0  0  0  0  0  0  0  0  0  0  0
    1.1700   -9.1462   -0.0000 C   0  0  0  0  0  0  0  0  0  0  0  0
    2.3652   -9.2342   -0.0000 C   0  0  0  0  0  0  0  0  0  0  0  0
    0.6290  -11.7000   -0.0000 C   0  0  0  0  0  0  0  0  0  0  0  0
    2.6294   -8.2781   -0.0000 C   0  0  0  0  0  0  0  0  0  0  0  0
    1.2832  -10.5426   -0.0000 C   0  0  0  0  0  0  0  0  0  0  0  0
    3.5603   -9.4481   -0.0000 C   0  0  0  0  0  0  0  0  0  0  0  0
    4.8436  -10.2029   -0.0000 N   0  0  0  0  0  0  0  0  0  0  0  0
    6.1520   -9.4607   -0.0000 C   0  0  0  0  0  0  0  0  0  0  0  0
    6.1645   -7.9384   -0.0000 O   0  0  0  0  0  0  0  0  0  0  0  0
    7.4352  -10.2155   -0.0000 C   0  0  0  0  0  0  0  0  0  0  0  0
    8.7436   -9.4733   -0.0000 C   0  0  0  0  0  0  0  0  0  0  0  0
    7.3974  -11.7126   -0.0000 C   0  0  0  0  0  0  0  0  0  0  0  0
    8.7562   -7.9510   -0.0000 C   0  0  0  0  0  0  0  0  0  0  0  0
   10.0268  -10.2281   -0.0000 C   0  0  0  0  0  0  0  0  0  0  0  0
    8.6807  -12.4675   -0.0000 C   0  0  0  0  0  0  0  0  0  0  0  0
    7.4478   -7.1710   -0.0000 C   0  0  0  0  0  0  0  0  0  0  0  0
   10.0646   -7.2087   -0.0000 C   0  0  0  0  0  0  0  0  0  0  0  0
    9.9891  -11.7252   -0.0000 C   0  0  0  0  0  0  0  0  0  0  0  0
    7.4604   -5.6487   -0.0000 N   0  0  0  0  0  0  0  0  0  0  0  0
   10.0771   -5.6865   -0.0000 N   0  0  0  0  0  0  0  0  0  0  0  0
    8.7687   -4.9065   -0.0000 C   0  0  0  0  0  0  0  0  0  0  0  0
   -6.5420   -6.1394   -0.0000 O   0  0  0  0  0  0  0  0  0  0  0  0
   -8.0642   -6.1268   -0.0000 C   0  0  0  0  0  0  0  0  0  0  0  0
   -8.8316   -4.8058   -0.0000 O   0  0  0  0  0  0  0  0  0  0  0  0
   -8.8316   -7.4226   -0.0000 C   0  0  0  0  0  0  0  0  0  0  0  0
  -10.3539   -7.4100   -0.0000 C   0  0  0  0  0  0  0  0  0  0  0  0
  -11.1213   -8.7058   -0.0000 C   0  0  0  0  0  0  0  0  0  0  0  0
  -10.3791  -10.0017   -0.0000 O   0  0  0  0  0  0  0  0  0  0  0  0
  -12.6436   -8.6933   -0.0000 O   0  0  0  0  0  0  0  0  0  0  0  0
  1  2  1  0
  2  3  2  0
  2  4  1  0
  3  5  1  0
  4  6  2  0
  5  7  2  0
  5  8  1  0
  7  9  1  0
  8 10  2  0
  9 11  2  0
 11 12  1  0
 12 13  1  0
 14 13  1  0
 15 13  1  0
 14 16  1  6
 14 17  1  0
 15 18  1  1
 15 19  1  0
 16 20  1  0
 20 21  1  1
 21 22  1  0
 22 23  2  0
 22 24  1  0
 24 25  1  0
 24 26  2  0
 25 27  1  0
 25 28  2  0
 26 29  1  0
 27 30  2  0
 27 31  1  0
 28 32  1  0
 30 33  1  0
 31 34  2  0
 33 35  2  0
 36 37  2  0
 37 38  1  0
 37 39  1  0
 39 40  2  0
 40 41  1  0
 41 42  2  0
 41 43  1  0
  6  7  1  0
 10 11  1  0
 17 19  1  0
 18 20  1  0
 29 32  2  0
 34 35  1  0
M  END
>  <MolRegNo>  (1) 
1594250

>  <m>  (1) 
=

>  <Value>  (1) 
2900

>  <Unit>  (1) 
nM

>  <Type>  (1) 
IC50

>  <pValue>  (1) 
5.54

>  <Ligand Efficiency>  (1) 
0

>  <Binding Efficiency>  (1) 
0

>  <Surface Efficiency>  (1) 
0

>  <Assay Index>  (1) 
384135

>  <Assay Category>  (1) 


>  <Assay Organism>  (1) 
Homo sapiens

>  <Target ID>  (1) 
11365

>  <Target Name>  (1) 
Cytochrome P450 2D6

>  <Target Organism>  (1) 
Homo sapiens

>  <Target Description>  (1) 
Target is a single protein chain

>  <Sequence Accession>  (1) 
P10635

>  <Reference>  (1) 
Bioorg Med Chem 16 (18), 8607-8618 (2008)

>  <Pubmed ID>  (1) 
18752960

>  <DOI>  (1) 
10.1016/j.bmc.2008.08.006

$$$$
