4wnv_ligand_198
     RDKit          2D

 29 31  0  0  0  0  0  0  0  0999 V2000
    0.0000   -0.0000   -0.0000 Cl  0  0  0  0  0  0  0  0  0  0  0  0
    1.2895    0.7808   -0.0000 C   0  0  0  0  0  0  0  0  0  0  0  0
    1.2777    2.2832   -0.0000 C   0  0  0  0  0  0  0  0  0  0  0  0
    2.5790    0.0473   -0.0000 C   0  0  0  0  0  0  0  0  0  0  0  0
    2.5672    3.0404   -0.0000 C   0  0  0  0  0  0  0  0  0  0  0  0
    3.8567    0.8045   -0.0000 C   0  0  0  0  0  0  0  0  0  0  0  0
    2.5553    4.5546   -0.0000 C   0  0  0  0  0  0  0  0  0  0  0  0
    3.8448    2.3069   -0.0000 C   0  0  0  0  0  0  0  0  0  0  0  0
    1.2540    5.3118   -0.0000 C   0  0  0  0  0  0  0  0  0  0  0  0
    3.8448    5.3118   -0.0000 C   0  0  0  0  0  0  0  0  0  0  0  0
    5.1343    3.0877   -0.0000 O   0  0  0  0  0  0  0  0  0  0  0  0
    1.2422    6.8142   -0.0000 C   0  0  0  0  0  0  0  0  0  0  0  0
   -0.0473    4.5783   -0.0000 C   0  0  0  0  0  0  0  0  0  0  0  0
    3.8212    6.8142   -0.0000 C   0  0  0  0  0  0  0  0  0  0  0  0
    5.1343    4.5901   -0.0000 C   0  0  0  0  0  0  0  0  0  0  0  0
    2.5198    7.5713   -0.0000 N   0  0  0  0  0  0  0  0  0  0  0  0
   -0.0592    7.5713   -0.0000 C   0  0  0  0  0  0  0  0  0  0  0  0
   -1.3605    5.3354   -0.0000 C   0  0  0  0  0  0  0  0  0  0  0  0
    5.1225    7.5713   -0.0000 O   0  0  0  0  0  0  0  0  0  0  0  0
    6.3647    5.4301   -0.0000 C   0  0  0  0  0  0  0  0  0  0  0  0
    2.5080    9.0738   -0.0000 C   0  0  0  0  0  0  0  0  0  0  0  0
   -1.3723    6.8379   -0.0000 C   0  0  0  0  0  0  0  0  0  0  0  0
   -2.6736    4.5901   -0.0000 C   0  0  0  0  0  0  0  0  0  0  0  0
    7.6896    4.7794   -0.0000 O   0  0  0  0  0  0  0  0  0  0  0  0
    3.5491   10.1503   -0.0000 C   0  0  0  0  0  0  0  0  0  0  0  0
   -1.9283    3.2888   -0.0000 F   0  0  0  0  0  0  0  0  0  0  0  0
   -3.9986    3.8330   -0.0000 F   0  0  0  0  0  0  0  0  0  0  0  0
   -3.4544    5.9033   -0.0000 F   0  0  0  0  0  0  0  0  0  0  0  0
    4.5901   11.2269   -0.0000 N   0  0  0  0  0  0  0  0  0  0  0  0
  1  2  1  0
  2  3  2  0
  2  4  1  0
  3  5  1  0
  4  6  2  0
  5  7  1  0
  5  8  2  0
  7  9  1  0
  7 10  2  0
  8 11  1  0
  9 12  2  0
  9 13  1  0
 10 14  1  0
 10 15  1  0
 12 16  1  0
 12 17  1  0
 13 18  2  0
 14 19  2  0
 15 20  1  0
 16 21  1  0
 17 22  2  0
 18 23  1  0
 20 24  1  0
 21 25  1  0
 23 26  1  0
 23 27  1  0
 23 28  1  0
 25 29  3  0
  6  8  1  0
 14 16  1  0
 18 22  1  0
M  END
>  <MolRegNo>  (1) 
327431

>  <m>  (1) 
=

>  <Value>  (1) 
23000

>  <Unit>  (1) 
nM

>  <Type>  (1) 
IC50

>  <pValue>  (1) 
4.64

>  <Ligand Efficiency>  (1) 
0

>  <Binding Efficiency>  (1) 
0

>  <Surface Efficiency>  (1) 
0

>  <Assay Index>  (1) 
251976

>  <Assay Category>  (1) 


>  <Assay Organism>  (1) 
Homo sapiens

>  <Target ID>  (1) 
11365

>  <Target Name>  (1) 
Cytochrome P450 2D6

>  <Target Organism>  (1) 
Homo sapiens

>  <Target Description>  (1) 
Target is a single protein chain

>  <Sequence Accession>  (1) 
P10635

>  <Reference>  (1) 
Bioorg Med Chem Lett 15 (19), 4286-4290 (2005)

>  <Pubmed ID>  (1) 
16061379

>  <DOI>  (1) 
10.1016/j.bmcl.2005.06.056

$$$$
