4wnv_ligand_782
     RDKit          2D

 28 31  0  0  0  0  0  0  0  0999 V2000
    0.0000   -0.0000   -0.0000 O   0  0  0  0  0  0  0  0  0  0  0  0
    1.2892    0.7640   -0.0000 C   0  0  0  0  0  0  0  0  0  0  0  0
    1.2892    2.2801   -0.0000 N   0  0  0  0  0  0  0  0  0  0  0  0
    2.5904    0.0119   -0.0000 C   0  0  0  0  0  0  0  0  0  0  0  0
   -0.0239    3.0441   -0.0000 C   0  0  0  0  0  0  0  0  0  0  0  0
    2.5904    3.0321   -0.0000 C   0  0  0  0  0  0  0  0  0  0  0  0
    3.8916    0.7759   -0.0000 C   0  0  0  0  0  0  0  0  0  0  0  0
    2.5785   -1.4922   -0.0000 C   0  0  0  0  0  0  0  0  0  0  0  0
   -0.0239    4.5601   -0.0000 C   0  0  0  0  0  0  0  0  0  0  0  0
    2.5904    4.5482   -0.0000 C   0  0  0  0  0  0  0  0  0  0  0  0
    5.1809    0.0239   -0.0000 C   0  0  0  0  0  0  0  0  0  0  0  0
    3.8677   -2.2323   -0.0000 C   0  0  0  0  0  0  0  0  0  0  0  0
    5.1570   -1.4802   -0.0000 C   0  0  0  0  0  0  0  0  0  0  0  0
    6.4462   -2.2084   -0.0000 C   0  0  0  0  0  0  0  0  0  0  0  0
    7.7355   -1.4444   -0.0000 C   0  0  0  0  0  0  0  0  0  0  0  0
    6.4343   -3.7006   -0.0000 C   0  0  0  0  0  0  0  0  0  0  0  0
    9.0247   -2.1965   -0.0000 C   0  0  0  0  0  0  0  0  0  0  0  0
    7.7355    0.0597   -0.0000 C   0  0  0  0  0  0  0  0  0  0  0  0
    7.7235   -4.4407   -0.0000 C   0  0  0  0  0  0  0  0  0  0  0  0
    9.0128   -3.6887   -0.0000 O   0  0  0  0  0  0  0  0  0  0  0  0
   10.3140   -1.4444   -0.0000 C   0  0  0  0  0  0  0  0  0  0  0  0
    9.0247    0.8237   -0.0000 C   0  0  0  0  0  0  0  0  0  0  0  0
    6.3985   -5.1689   -0.0000 C   0  0  0  0  0  0  0  0  0  0  0  0
    9.0128   -5.1809   -0.0000 C   0  0  0  0  0  0  0  0  0  0  0  0
   10.3140    0.0716   -0.0000 C   0  0  0  0  0  0  0  0  0  0  0  0
    6.3746   -6.6611   -0.0000 C   0  0  0  0  0  0  0  0  0  0  0  0
    8.9889   -6.6850   -0.0000 C   0  0  0  0  0  0  0  0  0  0  0  0
    7.6638   -7.4132   -0.0000 N   0  0  0  0  0  0  0  0  0  0  0  0
  1  2  2  0
  2  3  1  0
  2  4  1  0
  3  5  1  0
  3  6  1  0
  4  7  2  0
  4  8  1  0
  5  9  1  0
  6 10  1  0
  7 11  1  0
  8 12  2  0
 11 13  2  0
 13 14  1  0
 14 15  1  0
 14 16  2  0
 15 17  2  0
 15 18  1  0
 16 19  1  0
 17 20  1  0
 17 21  1  0
 18 22  2  0
 19 23  1  0
 19 24  1  0
 21 25  2  0
 23 26  1  0
 24 27  1  0
 26 28  1  0
 12 13  1  0
 19 20  1  0
 22 25  1  0
 27 28  1  0
M  END
>  <MolRegNo>  (1) 
469212

>  <m>  (1) 
=

>  <Value>  (1) 
4300

>  <Unit>  (1) 
nM

>  <Type>  (1) 
IC50

>  <pValue>  (1) 
5.37

>  <Ligand Efficiency>  (1) 
0

>  <Binding Efficiency>  (1) 
0

>  <Surface Efficiency>  (1) 
0

>  <Assay Index>  (1) 
428577

>  <Assay Category>  (1) 


>  <Assay Organism>  (1) 
Homo sapiens

>  <Target ID>  (1) 
11365

>  <Target Name>  (1) 
Cytochrome P450 2D6

>  <Target Organism>  (1) 
Homo sapiens

>  <Target Description>  (1) 
Target is a single protein chain

>  <Sequence Accession>  (1) 
P10635

>  <Reference>  (1) 
J Med Chem 52 (18), 5685-5702 (2009)

>  <Pubmed ID>  (1) 
19694468

>  <DOI>  (1) 
10.1021/jm900773n

$$$$
