4wnv_ligand_1051
     RDKit          2D

 34 38  0  0  0  0  0  0  0  0999 V2000
    0.0000   -0.0000   -0.0000 S   0  0  0  0  0  0  0  0  0  0  0  0
   -1.5132    0.0119   -0.0000 F   0  0  0  0  0  0  0  0  0  0  0  0
    0.7387   -1.2868   -0.0000 F   0  0  0  0  0  0  0  0  0  0  0  0
   -0.7745   -1.2868   -0.0000 F   0  0  0  0  0  0  0  0  0  0  0  0
    1.4894    0.0238   -0.0000 F   0  0  0  0  0  0  0  0  0  0  0  0
   -0.7745    1.3226   -0.0000 F   0  0  0  0  0  0  0  0  0  0  0  0
    0.7387    1.3226   -0.0000 C   0  0  0  0  0  0  0  0  0  0  0  0
   -0.0238    2.6332   -0.0000 C   0  0  0  0  0  0  0  0  0  0  0  0
    2.2400    1.3464   -0.0000 C   0  0  0  0  0  0  0  0  0  0  0  0
    0.7149    3.9438   -0.0000 C   0  0  0  0  0  0  0  0  0  0  0  0
    2.9668    2.6570   -0.0000 C   0  0  0  0  0  0  0  0  0  0  0  0
    2.2043    3.9557   -0.0000 C   0  0  0  0  0  0  0  0  0  0  0  0
    2.9430    5.2783   -0.0000 C   0  0  0  0  0  0  0  0  0  0  0  0
    2.9668    6.7915   -0.0000 C   0  0  0  0  0  0  0  0  0  0  0  0
    4.3609    4.8017   -0.0000 C   0  0  0  0  0  0  0  0  0  0  0  0
    1.6562    6.0647   -0.0000 C   0  0  0  0  0  0  0  0  0  0  0  0
    4.3847    7.2443   -0.0000 C   0  0  0  0  0  0  0  0  0  0  0  0
    5.2545    6.0170   -0.0000 N   0  0  0  0  0  0  0  0  0  0  0  0
    6.7438    6.0051   -0.0000 C   0  0  0  0  0  0  0  0  0  0  0  0
    7.4706    4.7064   -0.0000 C   0  0  0  0  0  0  0  0  0  0  0  0
    8.9600    4.6945   -0.0000 C   0  0  0  0  0  0  0  0  0  0  0  0
    9.6868    3.3957   -0.0000 S   0  0  0  0  0  0  0  0  0  0  0  0
   11.1762    3.4077   -0.0000 C   0  0  0  0  0  0  0  0  0  0  0  0
   12.0460    2.2043   -0.0000 N   0  0  0  0  0  0  0  0  0  0  0  0
   12.0341    4.6349   -0.0000 N   0  0  0  0  0  0  0  0  0  0  0  0
   13.4638    2.6809   -0.0000 N   0  0  0  0  0  0  0  0  0  0  0  0
   13.4519    4.1821   -0.0000 C   0  0  0  0  0  0  0  0  0  0  0  0
   11.5455    6.0766   -0.0000 C   0  0  0  0  0  0  0  0  0  0  0  0
   14.6434    5.0757   -0.0000 C   0  0  0  0  0  0  0  0  0  0  0  0
   14.6315    6.5889   -0.0000 O   0  0  0  0  0  0  0  0  0  0  0  0
   16.0613    4.6230   -0.0000 C   0  0  0  0  0  0  0  0  0  0  0  0
   16.0494    7.0655   -0.0000 C   0  0  0  0  0  0  0  0  0  0  0  0
   16.9311    5.8502   -0.0000 N   0  0  0  0  0  0  0  0  0  0  0  0
   16.5141    3.2051   -0.0000 C   0  0  0  0  0  0  0  0  0  0  0  0
  1  2  1  0
  1  3  1  0
  1  4  1  0
  1  5  1  0
  1  6  1  0
  1  7  1  0
  7  8  2  0
  7  9  1  0
  8 10  1  0
  9 11  2  0
 10 12  2  0
 12 13  1  0
 13 14  1  0
 13 15  1  0
 13 16  1  0
 14 17  1  0
 15 18  1  0
 18 19  1  0
 19 20  1  0
 20 21  1  0
 21 22  1  0
 22 23  1  0
 23 24  2  0
 23 25  1  0
 24 26  1  0
 25 27  1  0
 25 28  1  0
 27 29  1  0
 29 30  1  0
 29 31  2  0
 30 32  1  0
 31 33  1  0
 31 34  1  0
 11 12  1  0
 14 16  1  0
 17 18  1  0
 26 27  2  0
 32 33  2  0
M  END
>  <MolRegNo>  (1) 
684366

>  <m>  (1) 
=

>  <Value>  (1) 
8000

>  <Unit>  (1) 
nM

>  <Type>  (1) 
IC50

>  <pValue>  (1) 
5.1

>  <Ligand Efficiency>  (1) 
0

>  <Binding Efficiency>  (1) 
0

>  <Surface Efficiency>  (1) 
0

>  <Assay Index>  (1) 
489618

>  <Assay Category>  (1) 


>  <Assay Organism>  (1) 


>  <Target ID>  (1) 
11365

>  <Target Name>  (1) 
Cytochrome P450 2D6

>  <Target Organism>  (1) 
Homo sapiens

>  <Target Description>  (1) 
Target is a single protein chain

>  <Sequence Accession>  (1) 
P10635

>  <Reference>  (1) 
Bioorg Med Chem Lett 20 (15), 4566-4568 (2010)

>  <Pubmed ID>  (1) 
20573506

>  <DOI>  (1) 
10.1016/j.bmcl.2010.06.018

$$$$
