4wnv_ligand_783
     RDKit          2D

 26 29  0  0  0  0  0  0  0  0999 V2000
    0.0000   -0.0000   -0.0000 O   0  0  0  0  0  0  0  0  0  0  0  0
    1.4423    0.3663   -0.0000 C   0  0  0  0  0  0  0  0  0  0  0  0
    2.4726   -0.6983   -0.0000 N   0  0  0  0  0  0  0  0  0  0  0  0
    1.8430    1.8201   -0.0000 C   0  0  0  0  0  0  0  0  0  0  0  0
    2.0490   -2.1292   -0.0000 C   0  0  0  0  0  0  0  0  0  0  0  0
    3.2853    2.1864   -0.0000 C   0  0  0  0  0  0  0  0  0  0  0  0
    0.7899    2.9076   -0.0000 C   0  0  0  0  0  0  0  0  0  0  0  0
    3.0793   -3.1938   -0.0000 C   0  0  0  0  0  0  0  0  0  0  0  0
    3.6860    3.6402   -0.0000 C   0  0  0  0  0  0  0  0  0  0  0  0
    1.1905    4.3614   -0.0000 C   0  0  0  0  0  0  0  0  0  0  0  0
    2.6329    4.7277   -0.0000 C   0  0  0  0  0  0  0  0  0  0  0  0
    3.0335    6.1815   -0.0000 C   0  0  0  0  0  0  0  0  0  0  0  0
    1.9804    7.2690   -0.0000 C   0  0  0  0  0  0  0  0  0  0  0  0
    4.4759    6.5478   -0.0000 C   0  0  0  0  0  0  0  0  0  0  0  0
    2.3810    8.7228   -0.0000 C   0  0  0  0  0  0  0  0  0  0  0  0
    0.5151    6.9256   -0.0000 C   0  0  0  0  0  0  0  0  0  0  0  0
    4.8765    8.0016   -0.0000 C   0  0  0  0  0  0  0  0  0  0  0  0
    3.8234    9.0891   -0.0000 O   0  0  0  0  0  0  0  0  0  0  0  0
    1.3279    9.8102   -0.0000 C   0  0  0  0  0  0  0  0  0  0  0  0
   -0.5380    8.0130   -0.0000 C   0  0  0  0  0  0  0  0  0  0  0  0
    5.2772    9.4554   -0.0000 C   0  0  0  0  0  0  0  0  0  0  0  0
    5.9068    6.9370   -0.0000 C   0  0  0  0  0  0  0  0  0  0  0  0
   -0.1374    9.4668   -0.0000 C   0  0  0  0  0  0  0  0  0  0  0  0
    6.7195    9.8217   -0.0000 C   0  0  0  0  0  0  0  0  0  0  0  0
    7.3491    7.3033   -0.0000 C   0  0  0  0  0  0  0  0  0  0  0  0
    7.7498    8.7571   -0.0000 N   0  0  0  0  0  0  0  0  0  0  0  0
  1  2  2  0
  2  3  1  0
  2  4  1  0
  3  5  1  0
  4  6  2  0
  4  7  1  0
  5  8  1  0
  6  9  1  0
  7 10  2  0
  9 11  2  0
 11 12  1  0
 12 13  1  0
 12 14  2  0
 13 15  2  0
 13 16  1  0
 14 17  1  0
 15 18  1  0
 15 19  1  0
 16 20  2  0
 17 21  1  0
 17 22  1  0
 19 23  2  0
 21 24  1  0
 22 25  1  0
 24 26  1  0
 10 11  1  0
 17 18  1  0
 20 23  1  0
 25 26  1  0
M  END
>  <MolRegNo>  (1) 
560902

>  <m>  (1) 
=

>  <Value>  (1) 
89

>  <Unit>  (1) 
nM

>  <Type>  (1) 
IC50

>  <pValue>  (1) 
7.05

>  <Ligand Efficiency>  (1) 
0

>  <Binding Efficiency>  (1) 
0

>  <Surface Efficiency>  (1) 
0

>  <Assay Index>  (1) 
428577

>  <Assay Category>  (1) 


>  <Assay Organism>  (1) 
Homo sapiens

>  <Target ID>  (1) 
11365

>  <Target Name>  (1) 
Cytochrome P450 2D6

>  <Target Organism>  (1) 
Homo sapiens

>  <Target Description>  (1) 
Target is a single protein chain

>  <Sequence Accession>  (1) 
P10635

>  <Reference>  (1) 
J Med Chem 52 (18), 5685-5702 (2009)

>  <Pubmed ID>  (1) 
19694468

>  <DOI>  (1) 
10.1021/jm900773n

$$$$
