4wnv_ligand_121
     RDKit          2D

 34 36  0  0  0  0  0  0  0  0999 V2000
    0.0000   -0.0000   -0.0000 O   0  0  0  0  0  0  0  0  0  0  0  0
   -0.0118   -1.4882   -0.0000 C   0  0  0  0  0  0  0  0  0  0  0  0
    1.2756   -2.2206   -0.0000 O   0  0  0  0  0  0  0  0  0  0  0  0
   -1.3229   -2.2442   -0.0000 C   0  0  0  0  0  0  0  0  0  0  0  0
    2.7166   -1.8190   -0.0000 C   0  0  0  0  0  0  0  0  0  0  0  0
   -2.6340   -1.4882   -0.0000 C   0  0  0  0  0  0  0  0  0  0  0  0
    4.0041   -2.5513   -0.0000 C   0  0  0  0  0  0  0  0  0  0  0  0
   -2.6340    0.0236   -0.0000 C   0  0  0  0  0  0  0  0  0  0  0  0
   -3.9332    0.7796   -0.0000 C   0  0  0  0  0  0  0  0  0  0  0  0
   -1.3465    0.7796   -0.0000 C   0  0  0  0  0  0  0  0  0  0  0  0
   -3.9450    2.2914   -0.0000 C   0  0  0  0  0  0  0  0  0  0  0  0
   -1.3583    2.2914   -0.0000 C   0  0  0  0  0  0  0  0  0  0  0  0
   -5.0199    3.3663   -0.0000 C   0  0  0  0  0  0  0  0  0  0  0  0
   -2.6694    3.0592   -0.0000 C   0  0  0  0  0  0  0  0  0  0  0  0
   -6.0947    4.4411   -0.0000 N   0  0  0  0  0  0  0  0  0  0  0  0
   -2.6930    4.5710   -0.0000 O   0  0  0  0  0  0  0  0  0  0  0  0
   -1.4056    5.3506   -0.0000 C   0  0  0  0  0  0  0  0  0  0  0  0
   -0.1181    4.6183   -0.0000 C   0  0  0  0  0  0  0  0  0  0  0  0
   -0.1299    3.1300   -0.0000 O   0  0  0  0  0  0  0  0  0  0  0  0
    1.1693    5.3742   -0.0000 C   0  0  0  0  0  0  0  0  0  0  0  0
    2.4568    4.6419   -0.0000 N   0  0  0  0  0  0  0  0  0  0  0  0
    3.7442    5.4097   -0.0000 C   0  0  0  0  0  0  0  0  0  0  0  0
    5.0317    6.1892   -0.0000 C   0  0  0  0  0  0  0  0  0  0  0  0
    4.4765    6.7325   -0.0000 C   0  0  0  0  0  0  0  0  0  0  0  0
    5.0317    4.6773   -0.0000 C   0  0  0  0  0  0  0  0  0  0  0  0
    6.3191    5.4569   -0.0000 C   0  0  0  0  0  0  0  0  0  0  0  0
    7.5121    6.3546   -0.0000 C   0  0  0  0  0  0  0  0  0  0  0  0
    6.7562    4.0395   -0.0000 C   0  0  0  0  0  0  0  0  0  0  0  0
    8.7287    5.4805   -0.0000 C   0  0  0  0  0  0  0  0  0  0  0  0
    7.6538    7.8664   -0.0000 C   0  0  0  0  0  0  0  0  0  0  0  0
    8.2444    4.0513   -0.0000 N   0  0  0  0  0  0  0  0  0  0  0  0
   10.0988    6.1065   -0.0000 C   0  0  0  0  0  0  0  0  0  0  0  0
    9.0240    8.4806   -0.0000 C   0  0  0  0  0  0  0  0  0  0  0  0
   10.2405    7.6184   -0.0000 C   0  0  0  0  0  0  0  0  0  0  0  0
  1  2  2  0
  2  3  1  0
  2  4  1  0
  3  5  1  0
  4  6  1  0
  5  7  1  0
  6  8  1  0
  8  9  2  0
  8 10  1  0
  9 11  1  0
 10 12  2  0
 11 13  1  0
 11 14  2  0
 13 15  3  0
 14 16  1  0
 16 17  1  0
 17 18  1  0
 18 19  1  0
 18 20  1  0
 20 21  1  0
 21 22  1  0
 22 23  1  0
 22 24  1  0
 22 25  1  0
 23 26  1  0
 26 27  1  0
 26 28  2  0
 27 29  2  0
 27 30  1  0
 28 31  1  0
 29 32  1  0
 30 33  2  0
 32 34  2  0
 12 14  1  0
 29 31  1  0
 33 34  1  0
M  END
>  <MolRegNo>  (1) 
301322

>  <m>  (1) 
=

>  <Value>  (1) 
2100

>  <Unit>  (1) 
nM

>  <Type>  (1) 
IC50

>  <pValue>  (1) 
5.68

>  <Ligand Efficiency>  (1) 
0

>  <Binding Efficiency>  (1) 
0

>  <Surface Efficiency>  (1) 
0

>  <Assay Index>  (1) 
238811

>  <Assay Category>  (1) 


>  <Assay Organism>  (1) 
Homo sapiens

>  <Target ID>  (1) 
11365

>  <Target Name>  (1) 
Cytochrome P450 2D6

>  <Target Organism>  (1) 
Homo sapiens

>  <Target Description>  (1) 
Target is a single protein chain

>  <Sequence Accession>  (1) 
P10635

>  <Reference>  (1) 
Bioorg Med Chem Lett 15 (17), 3816-3820 (2005)

>  <Pubmed ID>  (1) 
15993593

>  <DOI>  (1) 
10.1016/j.bmcl.2005.06.007

$$$$
