4wnv_ligand_287
     RDKit          2D

 19 22  0  0  1  0  0  0  0  0999 V2000
    0.0000   -0.0000   -0.0000 Cl  0  0  0  0  0  0  0  0  0  0  0  0
   -1.4692   -0.4335   -0.0000 C   0  0  0  0  0  0  0  0  0  0  0  0
   -2.6975    0.5178   -0.0000 S   0  0  0  0  0  0  0  0  0  0  0  0
   -1.9990   -1.8545   -0.0000 C   0  0  0  0  0  0  0  0  0  0  0  0
   -3.9740   -0.3372   -0.0000 C   0  0  0  0  0  0  0  0  0  0  0  0
   -3.5405   -1.7943   -0.0000 C   0  0  0  0  0  0  0  0  0  0  0  0
   -5.4191    0.1806   -0.0000 N   0  0  0  0  0  0  0  0  0  0  0  0
   -5.8526    1.6498   -0.0000 C   0  0  0  0  0  0  0  0  0  0  0  0
   -6.6956   -0.6744   -0.0000 C   0  0  0  0  0  0  0  0  0  0  0  0
   -4.9253    2.8661   -0.0000 O   0  0  0  0  0  0  0  0  0  0  0  0
   -7.3820    1.7100   -0.0000 O   0  0  0  0  0  0  0  0  0  0  0  0
   -7.9239    0.2770   -0.0000 C   0  0  0  0  0  0  0  0  0  0  0  0
   -9.2606    1.0477   -0.0000 C   0  0  0  0  0  0  0  0  0  0  0  0
   -7.9359   -1.2404   -0.0000 C   0  0  0  0  0  0  0  0  0  0  0  0
  -10.5732    0.3011   -0.0000 C   0  0  0  0  0  0  0  0  0  0  0  0
   -9.8868   -0.1204   -0.0000 C   0  0  0  0  0  0  0  0  0  0  0  0
   -9.2726   -1.9870   -0.0000 N   0  0  0  0  0  0  0  0  0  0  0  0
  -10.5852   -1.2163   -0.0000 C   0  0  0  0  0  0  0  0  0  0  0  0
   -8.8030   -0.7346   -0.0000 C   0  0  0  0  0  0  0  0  0  0  0  0
  1  2  1  0
  2  3  1  0
  2  4  2  0
  3  5  1  0
  4  6  1  0
  5  7  1  0
  7  8  1  0
  7  9  1  0
  8 10  2  0
  8 11  1  0
 12  9  1  6
 12 13  1  0
 12 14  1  0
 13 15  1  0
 13 16  1  0
 14 17  1  0
 15 18  1  0
 16 19  1  0
  5  6  2  0
 12 11  1  0
 17 18  1  0
 17 19  1  0
M  END
>  <MolRegNo>  (1) 
320583

>  <m>  (1) 
=

>  <Value>  (1) 
2000

>  <Unit>  (1) 
nM

>  <Type>  (1) 
IC50

>  <pValue>  (1) 
5.7

>  <Ligand Efficiency>  (1) 
0

>  <Binding Efficiency>  (1) 
0

>  <Surface Efficiency>  (1) 
0

>  <Assay Index>  (1) 
264394

>  <Assay Category>  (1) 


>  <Assay Organism>  (1) 
Homo sapiens

>  <Target ID>  (1) 
11365

>  <Target Name>  (1) 
Cytochrome P450 2D6

>  <Target Organism>  (1) 
Homo sapiens

>  <Target Description>  (1) 
Target is a single protein chain

>  <Sequence Accession>  (1) 
P10635

>  <Reference>  (1) 
J Med Chem 49 (14), 4374-4383 (2006)

>  <Pubmed ID>  (1) 
16821797

>  <DOI>  (1) 
10.1021/jm060249c

$$$$
