4wnv_ligand_13
     RDKit          2D

 46 49  0  0  0  0  0  0  0  0999 V2000
    0.0000   -0.0000   -0.0000 S   0  0  0  0  0  0  0  0  0  0  0  0
    1.2678    0.7680   -0.0000 C   0  0  0  0  0  0  0  0  0  0  0  0
   -1.3287    0.7558   -0.0000 C   0  0  0  0  0  0  0  0  0  0  0  0
    1.2556    2.2796   -0.0000 N   0  0  0  0  0  0  0  0  0  0  0  0
    2.5721    0.0244   -0.0000 N   0  0  0  0  0  0  0  0  0  0  0  0
   -2.6331    0.0122   -0.0000 C   0  0  0  0  0  0  0  0  0  0  0  0
    2.5599    3.0475   -0.0000 C   0  0  0  0  0  0  0  0  0  0  0  0
    3.8521    0.7924   -0.0000 C   0  0  0  0  0  0  0  0  0  0  0  0
    2.5599   -1.4628   -0.0000 C   0  0  0  0  0  0  0  0  0  0  0  0
   -2.6453   -1.4994   -0.0000 C   0  0  0  0  0  0  0  0  0  0  0  0
   -3.9374    0.7802   -0.0000 C   0  0  0  0  0  0  0  0  0  0  0  0
    2.5477    4.5591   -0.0000 O   0  0  0  0  0  0  0  0  0  0  0  0
    3.8521    2.3039   -0.0000 C   0  0  0  0  0  0  0  0  0  0  0  0
    5.1320    0.0488   -0.0000 C   0  0  0  0  0  0  0  0  0  0  0  0
    3.8399   -2.2064   -0.0000 C   0  0  0  0  0  0  0  0  0  0  0  0
   -3.9496   -2.2430   -0.0000 C   0  0  0  0  0  0  0  0  0  0  0  0
   -5.2418    0.0244   -0.0000 C   0  0  0  0  0  0  0  0  0  0  0  0
    5.1320    3.0719   -0.0000 C   0  0  0  0  0  0  0  0  0  0  0  0
    5.1199   -1.4384   -0.0000 O   0  0  0  0  0  0  0  0  0  0  0  0
    3.8277   -3.6936   -0.0000 N   0  0  0  0  0  0  0  0  0  0  0  0
   -5.2539   -1.4750   -0.0000 C   0  0  0  0  0  0  0  0  0  0  0  0
    5.1320   -4.4372   -0.0000 C   0  0  0  0  0  0  0  0  0  0  0  0
    2.5234   -4.4372   -0.0000 C   0  0  0  0  0  0  0  0  0  0  0  0
   -6.5705   -2.2186   -0.0000 F   0  0  0  0  0  0  0  0  0  0  0  0
    6.4120   -3.6692   -0.0000 C   0  0  0  0  0  0  0  0  0  0  0  0
    1.2190   -3.6692   -0.0000 C   0  0  0  0  0  0  0  0  0  0  0  0
    7.6920   -4.4128   -0.0000 C   0  0  0  0  0  0  0  0  0  0  0  0
    6.3876   -2.1577   -0.0000 C   0  0  0  0  0  0  0  0  0  0  0  0
   -0.0853   -4.4128   -0.0000 N   0  0  0  0  0  0  0  0  0  0  0  0
    8.9719   -3.6448   -0.0000 C   0  0  0  0  0  0  0  0  0  0  0  0
    7.6676   -1.3897   -0.0000 C   0  0  0  0  0  0  0  0  0  0  0  0
   -1.4019   -3.6570   -0.0000 C   0  0  0  0  0  0  0  0  0  0  0  0
   -0.0975   -5.9000   -0.0000 C   0  0  0  0  0  0  0  0  0  0  0  0
    8.9597   -2.1333   -0.0000 C   0  0  0  0  0  0  0  0  0  0  0  0
   -2.7062   -4.4006   -0.0000 C   0  0  0  0  0  0  0  0  0  0  0  0
   -1.4141   -6.6436   -0.0000 C   0  0  0  0  0  0  0  0  0  0  0  0
   10.2397   -1.3653   -0.0000 C   0  0  0  0  0  0  0  0  0  0  0  0
   10.2153    0.1463   -0.0000 C   0  0  0  0  0  0  0  0  0  0  0  0
   11.5197   -2.1089   -0.0000 C   0  0  0  0  0  0  0  0  0  0  0  0
   11.4953    0.9143   -0.0000 C   0  0  0  0  0  0  0  0  0  0  0  0
   12.8118   -1.3409   -0.0000 C   0  0  0  0  0  0  0  0  0  0  0  0
   12.7996    0.1707   -0.0000 C   0  0  0  0  0  0  0  0  0  0  0  0
   14.0796    0.9508   -0.0000 C   0  0  0  0  0  0  0  0  0  0  0  0
   15.2377    1.6457   -0.0000 F   0  0  0  0  0  0  0  0  0  0  0  0
   15.5302    0.4145   -0.0000 F   0  0  0  0  0  0  0  0  0  0  0  0
   14.2990    2.5112   -0.0000 F   0  0  0  0  0  0  0  0  0  0  0  0
  1  2  1  0
  1  3  1  0
  2  4  2  0
  2  5  1  0
  3  6  1  0
  4  7  1  0
  5  8  1  0
  5  9  1  0
  6 10  2  0
  6 11  1  0
  7 12  2  0
  7 13  1  0
  8 14  1  0
  9 15  1  0
 10 16  1  0
 11 17  2  0
 13 18  1  0
 15 19  2  0
 15 20  1  0
 16 21  2  0
 20 22  1  0
 20 23  1  0
 21 24  1  0
 22 25  1  0
 23 26  1  0
 25 27  2  0
 25 28  1  0
 26 29  1  0
 27 30  1  0
 28 31  2  0
 29 32  1  0
 29 33  1  0
 30 34  2  0
 32 35  1  0
 33 36  1  0
 34 37  1  0
 37 38  2  0
 37 39  1  0
 38 40  1  0
 39 41  2  0
 40 42  2  0
 42 43  1  0
 43 44  1  0
 43 45  1  0
 43 46  1  0
  8 13  2  0
 17 21  1  0
 31 34  1  0
 41 42  1  0
M  END
>  <MolRegNo>  (1) 
7606

>  <m>  (1) 
=

>  <Value>  (1) 
24000

>  <Unit>  (1) 
nM

>  <Type>  (1) 
IC50

>  <pValue>  (1) 
4.62

>  <Ligand Efficiency>  (1) 
0

>  <Binding Efficiency>  (1) 
0

>  <Surface Efficiency>  (1) 
0

>  <Assay Index>  (1) 
51652

>  <Assay Category>  (1) 


>  <Assay Organism>  (1) 


>  <Target ID>  (1) 
11365

>  <Target Name>  (1) 
Cytochrome P450 2D6

>  <Target Organism>  (1) 
Homo sapiens

>  <Target Description>  (1) 
Target is a single protein chain

>  <Sequence Accession>  (1) 
P10635

>  <Reference>  (1) 
Bioorg Med Chem Lett 13 (6), 1067-1070 (2003)

>  <Pubmed ID>  (1) 
12643913

>  <DOI>  (1) 
10.1016/s0960-894x(03)00058-1

$$$$
