4wnv_ligand_831
     RDKit          2D

 22 24  0  0  0  0  0  0  0  0999 V2000
    0.0000   -0.0000   -0.0000 S   0  0  0  0  0  0  0  0  0  0  0  0
   -0.0119   -1.4930   -0.0000 C   0  0  0  0  0  0  0  0  0  0  0  0
   -1.3138    0.7644   -0.0000 C   0  0  0  0  0  0  0  0  0  0  0  0
    1.2780   -2.2335   -0.0000 C   0  0  0  0  0  0  0  0  0  0  0  0
   -1.3258   -2.2335   -0.0000 C   0  0  0  0  0  0  0  0  0  0  0  0
   -1.3258    2.2813   -0.0000 C   0  0  0  0  0  0  0  0  0  0  0  0
    2.5679   -1.4691   -0.0000 C   0  0  0  0  0  0  0  0  0  0  0  0
    1.2661   -3.7385   -0.0000 C   0  0  0  0  0  0  0  0  0  0  0  0
   -1.3377   -3.7265   -0.0000 C   0  0  0  0  0  0  0  0  0  0  0  0
    2.5560    0.0478   -0.0000 O   0  0  0  0  0  0  0  0  0  0  0  0
    3.8579   -2.2096   -0.0000 N   0  0  0  0  0  0  0  0  0  0  0  0
   -0.0597   -4.4790   -0.0000 C   0  0  0  0  0  0  0  0  0  0  0  0
    3.8460   -3.7026   -0.0000 C   0  0  0  0  0  0  0  0  0  0  0  0
    5.1478   -1.4452   -0.0000 C   0  0  0  0  0  0  0  0  0  0  0  0
    5.0523   -4.5745   -0.0000 C   0  0  0  0  0  0  0  0  0  0  0  0
    2.6157   -4.5745   -0.0000 C   0  0  0  0  0  0  0  0  0  0  0  0
    6.4378   -2.1857   -0.0000 C   0  0  0  0  0  0  0  0  0  0  0  0
    4.5745   -5.9959   -0.0000 N   0  0  0  0  0  0  0  0  0  0  0  0
    3.0696   -5.9959   -0.0000 C   0  0  0  0  0  0  0  0  0  0  0  0
    6.8319   -3.6310   -0.0000 C   0  0  0  0  0  0  0  0  0  0  0  0
    7.8830   -1.7796   -0.0000 C   0  0  0  0  0  0  0  0  0  0  0  0
    8.2772   -3.2249   -0.0000 C   0  0  0  0  0  0  0  0  0  0  0  0
  1  2  1  0
  1  3  1  0
  2  4  2  0
  2  5  1  0
  3  6  1  0
  4  7  1  0
  4  8  1  0
  5  9  2  0
  7 10  2  0
  7 11  1  0
  8 12  2  0
 13 11  1  6
 11 14  1  0
 13 15  1  0
 13 16  1  0
 14 17  1  0
 15 18  1  0
 16 19  1  0
 17 20  1  0
 17 21  1  0
 20 22  1  0
  9 12  1  0
 18 19  1  0
 21 22  1  0
M  END
>  <MolRegNo>  (1) 
566074

>  <m>  (1) 
=

>  <Value>  (1) 
480

>  <Unit>  (1) 
nM

>  <Type>  (1) 
IC50

>  <pValue>  (1) 
6.32

>  <Ligand Efficiency>  (1) 
0

>  <Binding Efficiency>  (1) 
0

>  <Surface Efficiency>  (1) 
0

>  <Assay Index>  (1) 
427125

>  <Assay Category>  (1) 


>  <Assay Organism>  (1) 


>  <Target ID>  (1) 
11365

>  <Target Name>  (1) 
Cytochrome P450 2D6

>  <Target Organism>  (1) 
Homo sapiens

>  <Target Description>  (1) 
Target is a single protein chain

>  <Sequence Accession>  (1) 
P10635

>  <Reference>  (1) 
Bioorg Med Chem Lett 19 (16), 4579-4583 (2009)

>  <Pubmed ID>  (1) 
19616432

>  <DOI>  (1) 
10.1016/j.bmcl.2009.06.096

$$$$
