4wnv_ligand_8
     RDKit          2D

 45 49  0  0  0  0  0  0  0  0999 V2000
    0.0000   -0.0000   -0.0000 Cl  0  0  0  0  0  0  0  0  0  0  0  0
   -1.3066   -0.7483   -0.0000 C   0  0  0  0  0  0  0  0  0  0  0  0
   -1.3066   -2.2330   -0.0000 C   0  0  0  0  0  0  0  0  0  0  0  0
   -2.6131    0.0119   -0.0000 C   0  0  0  0  0  0  0  0  0  0  0  0
   -2.6250   -2.9695   -0.0000 C   0  0  0  0  0  0  0  0  0  0  0  0
   -3.9078   -0.7364   -0.0000 C   0  0  0  0  0  0  0  0  0  0  0  0
   -3.9316   -2.2093   -0.0000 C   0  0  0  0  0  0  0  0  0  0  0  0
   -5.2381   -2.9576   -0.0000 C   0  0  0  0  0  0  0  0  0  0  0  0
   -5.2500   -4.4423   -0.0000 C   0  0  0  0  0  0  0  0  0  0  0  0
   -6.5447   -2.1974   -0.0000 C   0  0  0  0  0  0  0  0  0  0  0  0
   -6.5566   -5.1787   -0.0000 C   0  0  0  0  0  0  0  0  0  0  0  0
   -7.8394   -2.9338   -0.0000 C   0  0  0  0  0  0  0  0  0  0  0  0
   -7.8631   -4.4067   -0.0000 C   0  0  0  0  0  0  0  0  0  0  0  0
   -9.1697   -5.1431   -0.0000 C   0  0  0  0  0  0  0  0  0  0  0  0
  -10.4763   -4.3829   -0.0000 N   0  0  0  0  0  0  0  0  0  0  0  0
  -10.4881   -2.8744   -0.0000 C   0  0  0  0  0  0  0  0  0  0  0  0
  -11.7828   -5.1194   -0.0000 C   0  0  0  0  0  0  0  0  0  0  0  0
   -9.2053   -2.1143   -0.0000 O   0  0  0  0  0  0  0  0  0  0  0  0
  -11.7947   -2.1143   -0.0000 C   0  0  0  0  0  0  0  0  0  0  0  0
  -13.0894   -4.3592   -0.0000 C   0  0  0  0  0  0  0  0  0  0  0  0
  -11.8066   -0.6058   -0.0000 N   0  0  0  0  0  0  0  0  0  0  0  0
  -14.3960   -5.0956   -0.0000 N   0  0  0  0  0  0  0  0  0  0  0  0
  -13.1250    0.1544   -0.0000 C   0  0  0  0  0  0  0  0  0  0  0  0
  -10.5238    0.1544   -0.0000 C   0  0  0  0  0  0  0  0  0  0  0  0
  -14.4078   -6.5803   -0.0000 C   0  0  0  0  0  0  0  0  0  0  0  0
  -15.7144   -4.3473   -0.0000 C   0  0  0  0  0  0  0  0  0  0  0  0
  -14.4316   -0.5820   -0.0000 S   0  0  0  0  0  0  0  0  0  0  0  0
  -13.1369    1.6510   -0.0000 N   0  0  0  0  0  0  0  0  0  0  0  0
  -10.5475    1.6510   -0.0000 C   0  0  0  0  0  0  0  0  0  0  0  0
   -9.2647   -0.5701   -0.0000 C   0  0  0  0  0  0  0  0  0  0  0  0
  -15.7263   -7.3286   -0.0000 C   0  0  0  0  0  0  0  0  0  0  0  0
  -17.0210   -5.0837   -0.0000 C   0  0  0  0  0  0  0  0  0  0  0  0
  -15.7382    0.1663   -0.0000 C   0  0  0  0  0  0  0  0  0  0  0  0
  -11.8541    2.4231   -0.0000 C   0  0  0  0  0  0  0  0  0  0  0  0
   -9.2647    2.4231   -0.0000 C   0  0  0  0  0  0  0  0  0  0  0  0
   -7.9819    0.1782   -0.0000 C   0  0  0  0  0  0  0  0  0  0  0  0
  -17.0447   -0.5701   -0.0000 C   0  0  0  0  0  0  0  0  0  0  0  0
  -11.8660    3.9316   -0.0000 O   0  0  0  0  0  0  0  0  0  0  0  0
   -7.9819    1.6985   -0.0000 C   0  0  0  0  0  0  0  0  0  0  0  0
  -18.3513    0.1900   -0.0000 C   0  0  0  0  0  0  0  0  0  0  0  0
  -17.0566   -2.0667   -0.0000 C   0  0  0  0  0  0  0  0  0  0  0  0
  -19.6579   -0.5583   -0.0000 C   0  0  0  0  0  0  0  0  0  0  0  0
  -18.3632   -2.7913   -0.0000 C   0  0  0  0  0  0  0  0  0  0  0  0
  -19.6697   -2.0430   -0.0000 C   0  0  0  0  0  0  0  0  0  0  0  0
  -20.9882   -2.7675   -0.0000 F   0  0  0  0  0  0  0  0  0  0  0  0
  1  2  1  0
  2  3  2  0
  2  4  1  0
  3  5  1  0
  4  6  2  0
  5  7  2  0
  7  8  1  0
  8  9  2  0
  8 10  1  0
  9 11  1  0
 10 12  2  0
 11 13  2  0
 13 14  1  0
 14 15  1  0
 15 16  1  0
 15 17  1  0
 16 18  2  0
 16 19  1  0
 17 20  1  0
 19 21  1  0
 20 22  1  0
 21 23  1  0
 21 24  1  0
 22 25  1  0
 22 26  1  0
 23 27  1  0
 23 28  2  0
 24 29  2  0
 24 30  1  0
 25 31  1  0
 26 32  1  0
 27 33  1  0
 28 34  1  0
 29 35  1  0
 30 36  1  0
 33 37  1  0
 34 38  2  0
 35 39  1  0
 37 40  2  0
 37 41  1  0
 40 42  1  0
 41 43  2  0
 42 44  2  0
 44 45  1  0
  6  7  1  0
 12 13  1  0
 29 34  1  0
 36 39  1  0
 43 44  1  0
M  END
>  <MolRegNo>  (1) 
7582

>  <m>  (1) 
=

>  <Value>  (1) 
6000

>  <Unit>  (1) 
nM

>  <Type>  (1) 
IC50

>  <pValue>  (1) 
5.22

>  <Ligand Efficiency>  (1) 
0

>  <Binding Efficiency>  (1) 
0

>  <Surface Efficiency>  (1) 
0

>  <Assay Index>  (1) 
51652

>  <Assay Category>  (1) 


>  <Assay Organism>  (1) 


>  <Target ID>  (1) 
11365

>  <Target Name>  (1) 
Cytochrome P450 2D6

>  <Target Organism>  (1) 
Homo sapiens

>  <Target Description>  (1) 
Target is a single protein chain

>  <Sequence Accession>  (1) 
P10635

>  <Reference>  (1) 
Bioorg Med Chem Lett 13 (6), 1067-1070 (2003)

>  <Pubmed ID>  (1) 
12643913

>  <DOI>  (1) 
10.1016/s0960-894x(03)00058-1

$$$$
