4wnv_ligand_550
     RDKit          2D

 33 36  0  0  0  0  0  0  0  0999 V2000
    0.0000   -0.0000   -0.0000 Cl  0  0  0  0  0  0  0  0  0  0  0  0
    1.2939   -0.7360   -0.0000 C   0  0  0  0  0  0  0  0  0  0  0  0
    1.2820   -2.2316   -0.0000 C   0  0  0  0  0  0  0  0  0  0  0  0
    2.5759    0.0237   -0.0000 C   0  0  0  0  0  0  0  0  0  0  0  0
   -0.0356   -2.9676   -0.0000 Cl  0  0  0  0  0  0  0  0  0  0  0  0
    2.5640   -2.9676   -0.0000 C   0  0  0  0  0  0  0  0  0  0  0  0
    3.8698   -0.7122   -0.0000 C   0  0  0  0  0  0  0  0  0  0  0  0
    3.8579   -2.2079   -0.0000 C   0  0  0  0  0  0  0  0  0  0  0  0
    5.1518    0.0594   -0.0000 N   0  0  0  0  0  0  0  0  0  0  0  0
    5.1280    1.5788   -0.0000 C   0  0  0  0  0  0  0  0  0  0  0  0
    6.4457   -0.6766   -0.0000 C   0  0  0  0  0  0  0  0  0  0  0  0
    3.8104    2.3385   -0.0000 C   0  0  0  0  0  0  0  0  0  0  0  0
    7.7277    0.0950   -0.0000 C   0  0  0  0  0  0  0  0  0  0  0  0
    2.4928    3.0982   -0.0000 N   0  0  0  0  0  0  0  0  0  0  0  0
    9.0215   -0.6410   -0.0000 O   0  0  0  0  0  0  0  0  0  0  0  0
    7.7039    1.6144   -0.0000 N   0  0  0  0  0  0  0  0  0  0  0  0
    8.9978    2.3741   -0.0000 C   0  0  0  0  0  0  0  0  0  0  0  0
    6.3863    2.3622   -0.0000 C   0  0  0  0  0  0  0  0  0  0  0  0
    8.9859    3.8816   -0.0000 C   0  0  0  0  0  0  0  0  0  0  0  0
    9.9000    1.1989   -0.0000 C   0  0  0  0  0  0  0  0  0  0  0  0
    6.3744    3.8816   -0.0000 C   0  0  0  0  0  0  0  0  0  0  0  0
   10.2798    4.6413   -0.0000 C   0  0  0  0  0  0  0  0  0  0  0  0
    7.6683    4.6413   -0.0000 C   0  0  0  0  0  0  0  0  0  0  0  0
   11.3719    1.4126   -0.0000 N   0  0  0  0  0  0  0  0  0  0  0  0
   11.5737    3.9054   -0.0000 C   0  0  0  0  0  0  0  0  0  0  0  0
   10.2679    6.1489   -0.0000 C   0  0  0  0  0  0  0  0  0  0  0  0
   12.3927    0.3442   -0.0000 C   0  0  0  0  0  0  0  0  0  0  0  0
   12.0722    2.7539   -0.0000 C   0  0  0  0  0  0  0  0  0  0  0  0
   12.8557    4.6651   -0.0000 C   0  0  0  0  0  0  0  0  0  0  0  0
   11.5499    6.9205   -0.0000 C   0  0  0  0  0  0  0  0  0  0  0  0
   13.7341    1.0090   -0.0000 C   0  0  0  0  0  0  0  0  0  0  0  0
   13.5442    2.4928   -0.0000 C   0  0  0  0  0  0  0  0  0  0  0  0
   12.8438    6.1845   -0.0000 C   0  0  0  0  0  0  0  0  0  0  0  0
  1  2  1  0
  2  3  2  0
  2  4  1  0
  3  5  1  0
  3  6  1  0
  4  7  2  0
  6  8  2  0
  7  9  1  0
  9 10  1  0
  9 11  1  0
 10 12  1  0
 11 13  1  0
 12 14  3  0
 13 15  2  0
 13 16  1  0
 16 17  1  0
 16 18  1  0
 17 19  1  0
 17 20  1  0
 18 21  1  0
 19 22  1  0
 19 23  1  0
 20 24  1  0
 22 25  2  0
 22 26  1  0
 24 27  1  0
 24 28  1  0
 25 29  1  0
 26 30  2  0
 27 31  1  0
 28 32  1  0
 29 33  2  0
  7  8  1  0
 21 23  1  0
 30 33  1  0
 31 32  1  0
M  END
>  <MolRegNo>  (1) 
427004

>  <m>  (1) 
=

>  <Value>  (1) 
2300

>  <Unit>  (1) 
nM

>  <Type>  (1) 
IC50

>  <pValue>  (1) 
5.64

>  <Ligand Efficiency>  (1) 
0

>  <Binding Efficiency>  (1) 
0

>  <Surface Efficiency>  (1) 
0

>  <Assay Index>  (1) 
328211

>  <Assay Category>  (1) 


>  <Assay Organism>  (1) 


>  <Target ID>  (1) 
11365

>  <Target Name>  (1) 
Cytochrome P450 2D6

>  <Target Organism>  (1) 
Homo sapiens

>  <Target Description>  (1) 
Target is a single protein chain

>  <Sequence Accession>  (1) 
P10635

>  <Reference>  (1) 
Bioorg Med Chem Lett 18 (12), 3500-3503 (2008)

>  <Pubmed ID>  (1) 
18502123

>  <DOI>  (1) 
10.1016/j.bmcl.2008.05.027

$$$$
