4wnv_ligand_142
     RDKit          2D

 27 29  0  0  0  0  0  0  0  0999 V2000
    0.0000   -0.0000   -0.0000 O   0  0  0  0  0  0  0  0  0  0  0  0
    0.0000   -1.4953   -0.0000 C   0  0  0  0  0  0  0  0  0  0  0  0
    1.2935    0.7714   -0.0000 C   0  0  0  0  0  0  0  0  0  0  0  0
   -1.3173   -2.2429   -0.0000 C   0  0  0  0  0  0  0  0  0  0  0  0
    1.2935   -2.2310   -0.0000 C   0  0  0  0  0  0  0  0  0  0  0  0
    2.5871    0.0237   -0.0000 C   0  0  0  0  0  0  0  0  0  0  0  0
   -1.3173   -3.7144   -0.0000 C   0  0  0  0  0  0  0  0  0  0  0  0
   -2.6345   -1.4834   -0.0000 C   0  0  0  0  0  0  0  0  0  0  0  0
    1.2817   -3.7144   -0.0000 C   0  0  0  0  0  0  0  0  0  0  0  0
    2.5633   -1.4715   -0.0000 O   0  0  0  0  0  0  0  0  0  0  0  0
    3.8806    0.8070   -0.0000 C   0  0  0  0  0  0  0  0  0  0  0  0
   -0.0237   -4.4621   -0.0000 C   0  0  0  0  0  0  0  0  0  0  0  0
    5.1741    0.0593   -0.0000 N   0  0  0  0  0  0  0  0  0  0  0  0
    6.6100    0.4628   -0.0000 C   0  0  0  0  0  0  0  0  0  0  0  0
    7.9036    1.2342   -0.0000 C   0  0  0  0  0  0  0  0  0  0  0  0
    8.0578    0.0831   -0.0000 C   0  0  0  0  0  0  0  0  0  0  0  0
    6.5982    1.9818   -0.0000 C   0  0  0  0  0  0  0  0  0  0  0  0
    9.3514    0.8782   -0.0000 C   0  0  0  0  0  0  0  0  0  0  0  0
   10.8229    1.1155   -0.0000 N   0  0  0  0  0  0  0  0  0  0  0  0
    9.0903   -0.6052   -0.0000 C   0  0  0  0  0  0  0  0  0  0  0  0
   11.4993   -0.2136   -0.0000 C   0  0  0  0  0  0  0  0  0  0  0  0
   11.4756    2.4803   -0.0000 C   0  0  0  0  0  0  0  0  0  0  0  0
   10.4313   -1.2817   -0.0000 C   0  0  0  0  0  0  0  0  0  0  0  0
   12.9471   -0.5696   -0.0000 C   0  0  0  0  0  0  0  0  0  0  0  0
   10.8110   -2.7295   -0.0000 C   0  0  0  0  0  0  0  0  0  0  0  0
   13.3269   -2.0174   -0.0000 C   0  0  0  0  0  0  0  0  0  0  0  0
   12.2588   -3.1092   -0.0000 C   0  0  0  0  0  0  0  0  0  0  0  0
  1  2  1  0
  1  3  1  0
  2  4  2  0
  2  5  1  0
  3  6  1  0
  4  7  1  0
  4  8  1  0
  5  9  2  0
  6 10  1  0
  6 11  1  0
  7 12  2  0
 11 13  1  0
 13 14  1  0
 14 15  1  0
 14 16  1  0
 14 17  1  0
 15 18  1  0
 18 19  1  0
 18 20  2  0
 19 21  1  0
 19 22  1  0
 20 23  1  0
 21 24  2  0
 23 25  2  0
 24 26  1  0
 25 27  1  0
  9 12  1  0
 21 23  1  0
 26 27  2  0
M  END
>  <MolRegNo>  (1) 
301494

>  <m>  (1) 
=

>  <Value>  (1) 
90

>  <Unit>  (1) 
nM

>  <Type>  (1) 
IC50

>  <pValue>  (1) 
7.05

>  <Ligand Efficiency>  (1) 
0

>  <Binding Efficiency>  (1) 
0

>  <Surface Efficiency>  (1) 
0

>  <Assay Index>  (1) 
238811

>  <Assay Category>  (1) 


>  <Assay Organism>  (1) 
Homo sapiens

>  <Target ID>  (1) 
11365

>  <Target Name>  (1) 
Cytochrome P450 2D6

>  <Target Organism>  (1) 
Homo sapiens

>  <Target Description>  (1) 
Target is a single protein chain

>  <Sequence Accession>  (1) 
P10635

>  <Reference>  (1) 
Bioorg Med Chem Lett 15 (17), 3816-3820 (2005)

>  <Pubmed ID>  (1) 
15993593

>  <DOI>  (1) 
10.1016/j.bmcl.2005.06.007

$$$$
