4wnv_ligand_563
     RDKit          2D

 22 24  0  0  0  0  0  0  0  0999 V2000
    0.0000   -0.0000   -0.0000 O   0  0  0  0  0  0  0  0  0  0  0  0
   -0.0118    1.5118   -0.0000 C   0  0  0  0  0  0  0  0  0  0  0  0
   -1.3110   -0.7323   -0.0000 C   0  0  0  0  0  0  0  0  0  0  0  0
   -1.3228    2.2795   -0.0000 C   0  0  0  0  0  0  0  0  0  0  0  0
    1.2756    2.2677   -0.0000 C   0  0  0  0  0  0  0  0  0  0  0  0
   -2.6102    0.0236   -0.0000 C   0  0  0  0  0  0  0  0  0  0  0  0
   -1.3346    3.7795   -0.0000 O   0  0  0  0  0  0  0  0  0  0  0  0
   -2.6220    1.5354   -0.0000 C   0  0  0  0  0  0  0  0  0  0  0  0
    2.5512    1.5354   -0.0000 N   0  0  0  0  0  0  0  0  0  0  0  0
   -3.9094   -0.7205   -0.0000 C   0  0  0  0  0  0  0  0  0  0  0  0
   -0.0472    4.5354   -0.0000 C   0  0  0  0  0  0  0  0  0  0  0  0
   -3.9331    2.2913   -0.0000 C   0  0  0  0  0  0  0  0  0  0  0  0
    3.8386    2.2913   -0.0000 C   0  0  0  0  0  0  0  0  0  0  0  0
   -5.2205    0.0354   -0.0000 C   0  0  0  0  0  0  0  0  0  0  0  0
   -0.0709    6.0354   -0.0000 C   0  0  0  0  0  0  0  0  0  0  0  0
    1.2283    3.7913   -0.0000 C   0  0  0  0  0  0  0  0  0  0  0  0
   -5.2323    1.5590   -0.0000 C   0  0  0  0  0  0  0  0  0  0  0  0
    1.2047    6.8031   -0.0000 C   0  0  0  0  0  0  0  0  0  0  0  0
   -1.3819    6.7913   -0.0000 C   0  0  0  0  0  0  0  0  0  0  0  0
    2.5039    4.5472   -0.0000 C   0  0  0  0  0  0  0  0  0  0  0  0
    2.4921    6.0708   -0.0000 C   0  0  0  0  0  0  0  0  0  0  0  0
    1.1929    8.3031   -0.0000 C   0  0  0  0  0  0  0  0  0  0  0  0
  1  2  1  0
  1  3  1  0
  2  4  1  0
  2  5  1  1
  3  6  1  0
  4  7  1  1
  4  8  1  0
  5  9  1  0
  6 10  2  0
  7 11  1  0
  8 12  2  0
  9 13  1  0
 10 14  1  0
 11 15  2  0
 11 16  1  0
 12 17  1  0
 15 18  1  0
 15 19  1  0
 16 20  2  0
 18 21  2  0
 18 22  1  0
  6  8  1  0
 14 17  2  0
 20 21  1  0
M  END
>  <MolRegNo>  (1) 
511424

>  <m>  (1) 
=

>  <Value>  (1) 
70

>  <Unit>  (1) 
nM

>  <Type>  (1) 
IC50

>  <pValue>  (1) 
7.16

>  <Ligand Efficiency>  (1) 
0

>  <Binding Efficiency>  (1) 
0

>  <Surface Efficiency>  (1) 
0

>  <Assay Index>  (1) 
358939

>  <Assay Category>  (1) 


>  <Assay Organism>  (1) 


>  <Target ID>  (1) 
11365

>  <Target Name>  (1) 
Cytochrome P450 2D6

>  <Target Organism>  (1) 
Homo sapiens

>  <Target Description>  (1) 
Target is a single protein chain

>  <Sequence Accession>  (1) 
P10635

>  <Reference>  (1) 
Bioorg Med Chem Lett 18 (16), 4491-4494 (2008)

>  <Pubmed ID>  (1) 
18672364

>  <DOI>  (1) 
10.1016/j.bmcl.2008.07.049

$$$$
