4wnv_ligand_556
     RDKit          2D

 34 38  0  0  0  0  0  0  0  0999 V2000
    0.0000   -0.0000   -0.0000 O   0  0  0  0  0  0  0  0  0  0  0  0
    1.2740   -0.7620   -0.0000 C   0  0  0  0  0  0  0  0  0  0  0  0
    2.5718   -0.0119   -0.0000 N   0  0  0  0  0  0  0  0  0  0  0  0
    1.2383   -2.2503   -0.0000 N   0  0  0  0  0  0  0  0  0  0  0  0
    3.8457   -0.7739   -0.0000 C   0  0  0  0  0  0  0  0  0  0  0  0
   -0.0833   -2.9766   -0.0000 C   0  0  0  0  0  0  0  0  0  0  0  0
    5.1316   -0.0238   -0.0000 C   0  0  0  0  0  0  0  0  0  0  0  0
    3.7981   -2.2622   -0.0000 C   0  0  0  0  0  0  0  0  0  0  0  0
   -0.1191   -4.4648   -0.0000 C   0  0  0  0  0  0  0  0  0  0  0  0
   -1.3930   -2.1908   -0.0000 C   0  0  0  0  0  0  0  0  0  0  0  0
    6.4056   -0.7739   -0.0000 C   0  0  0  0  0  0  0  0  0  0  0  0
    5.0721   -3.0242   -0.0000 C   0  0  0  0  0  0  0  0  0  0  0  0
   -1.4526   -5.1792   -0.0000 C   0  0  0  0  0  0  0  0  0  0  0  0
   -2.7265   -2.9170   -0.0000 C   0  0  0  0  0  0  0  0  0  0  0  0
    7.7033   -0.0238   -0.0000 O   0  0  0  0  0  0  0  0  0  0  0  0
    6.3698   -2.2741   -0.0000 C   0  0  0  0  0  0  0  0  0  0  0  0
   -1.4883   -6.6675   -0.0000 C   0  0  0  0  0  0  0  0  0  0  0  0
   -2.7503   -4.4053   -0.0000 C   0  0  0  0  0  0  0  0  0  0  0  0
    8.9892   -0.7739   -0.0000 C   0  0  0  0  0  0  0  0  0  0  0  0
   -0.2977   -7.5605   -0.0000 N   0  0  0  0  0  0  0  0  0  0  0  0
   -2.7265   -7.5248   -0.0000 C   0  0  0  0  0  0  0  0  0  0  0  0
   -0.7977   -8.9773   -0.0000 N   0  0  0  0  0  0  0  0  0  0  0  0
   -4.1672   -7.0247   -0.0000 C   0  0  0  0  0  0  0  0  0  0  0  0
   -2.2979   -8.9535   -0.0000 C   0  0  0  0  0  0  0  0  0  0  0  0
    0.0595  -10.1918   -0.0000 C   0  0  0  0  0  0  0  0  0  0  0  0
   -5.3102   -8.0010   -0.0000 C   0  0  0  0  0  0  0  0  0  0  0  0
   -4.4648   -5.5364   -0.0000 C   0  0  0  0  0  0  0  0  0  0  0  0
   -0.5834  -11.5491   -0.0000 C   0  0  0  0  0  0  0  0  0  0  0  0
   -6.7389   -7.5009   -0.0000 C   0  0  0  0  0  0  0  0  0  0  0  0
   -5.3459   -9.4893   -0.0000 C   0  0  0  0  0  0  0  0  0  0  0  0
   -5.9055   -5.0363   -0.0000 C   0  0  0  0  0  0  0  0  0  0  0  0
   -7.0366   -6.0246   -0.0000 N   0  0  0  0  0  0  0  0  0  0  0  0
   -7.6557   -8.6916   -0.0000 N   0  0  0  0  0  0  0  0  0  0  0  0
   -6.7985   -9.9179   -0.0000 C   0  0  0  0  0  0  0  0  0  0  0  0
  1  2  2  0
  2  3  1  0
  2  4  1  0
  3  5  1  0
  4  6  1  0
  5  7  2  0
  5  8  1  0
  6  9  2  0
  6 10  1  0
  7 11  1  0
  8 12  2  0
  9 13  1  0
 10 14  2  0
 11 15  1  0
 11 16  2  0
 13 17  1  0
 13 18  2  0
 15 19  1  0
 17 20  2  0
 17 21  1  0
 20 22  1  0
 21 23  1  0
 21 24  2  0
 22 25  1  0
 23 26  1  0
 23 27  2  0
 25 28  1  0
 26 29  2  0
 26 30  1  0
 27 31  1  0
 29 32  1  0
 29 33  1  0
 30 34  2  0
 12 16  1  0
 14 18  1  0
 22 24  1  0
 31 32  2  0
 33 34  1  0
M  END
>  <MolRegNo>  (1) 
511677

>  <m>  (1) 
=

>  <Value>  (1) 
199.53

>  <Unit>  (1) 
nM

>  <Type>  (1) 
IC50

>  <pValue>  (1) 
6.7

>  <Ligand Efficiency>  (1) 
0

>  <Binding Efficiency>  (1) 
0

>  <Surface Efficiency>  (1) 
0

>  <Assay Index>  (1) 
363725

>  <Assay Category>  (1) 


>  <Assay Organism>  (1) 


>  <Target ID>  (1) 
11365

>  <Target Name>  (1) 
Cytochrome P450 2D6

>  <Target Organism>  (1) 
Homo sapiens

>  <Target Description>  (1) 
Target is a single protein chain

>  <Sequence Accession>  (1) 
P10635

>  <Reference>  (1) 
Bioorg Med Chem Lett 18 (16), 4610-4614 (2008)

>  <Pubmed ID>  (1) 
18662874

>  <DOI>  (1) 
10.1016/j.bmcl.2008.07.019

$$$$
