4wnv_ligand_208
     RDKit          2D

 33 36  0  0  1  0  0  0  0  0999 V2000
    0.0000   -0.0000   -0.0000 S   0  0  0  0  0  0  0  0  0  0  0  0
    0.7387   -1.2868   -0.0000 O   0  0  0  0  0  0  0  0  0  0  0  0
   -0.7625    1.3225   -0.0000 O   0  0  0  0  0  0  0  0  0  0  0  0
   -1.3225   -0.7268   -0.0000 N   0  0  0  0  0  0  0  0  0  0  0  0
    1.2868    0.7625   -0.0000 C   0  0  0  0  0  0  0  0  0  0  0  0
   -2.6332    0.0477   -0.0000 C   0  0  0  0  0  0  0  0  0  0  0  0
    2.5617    0.0238   -0.0000 C   0  0  0  0  0  0  0  0  0  0  0  0
    1.2749    2.2757   -0.0000 C   0  0  0  0  0  0  0  0  0  0  0  0
    3.8366    0.7745   -0.0000 C   0  0  0  0  0  0  0  0  0  0  0  0
    2.5617    3.0264   -0.0000 C   0  0  0  0  0  0  0  0  0  0  0  0
    3.8366    2.2876   -0.0000 C   0  0  0  0  0  0  0  0  0  0  0  0
    5.1234    0.0357   -0.0000 C   0  0  0  0  0  0  0  0  0  0  0  0
    5.1234    3.0502   -0.0000 O   0  0  0  0  0  0  0  0  0  0  0  0
    6.4221    0.7983   -0.0000 C   0  0  0  0  0  0  0  0  0  0  0  0
    6.4221    2.3115   -0.0000 C   0  0  0  0  0  0  0  0  0  0  0  0
    7.7089    3.0740   -0.0000 C   0  0  0  0  0  0  0  0  0  0  0  0
    7.6969    4.5872   -0.0000 O   0  0  0  0  0  0  0  0  0  0  0  0
    8.9957    2.3353   -0.0000 N   0  0  0  0  0  0  0  0  0  0  0  0
   10.2824    3.0978   -0.0000 C   0  0  0  0  0  0  0  0  0  0  0  0
    8.9837    0.8459   -0.0000 C   0  0  0  0  0  0  0  0  0  0  0  0
   10.2705    4.6110   -0.0000 C   0  0  0  0  0  0  0  0  0  0  0  0
   11.5692    2.3591   -0.0000 C   0  0  0  0  0  0  0  0  0  0  0  0
    8.9599    5.3736   -0.0000 C   0  0  0  0  0  0  0  0  0  0  0  0
   11.5692    5.3736   -0.0000 C   0  0  0  0  0  0  0  0  0  0  0  0
   12.8560    3.1217   -0.0000 N   0  0  0  0  0  0  0  0  0  0  0  0
    8.9480    6.8867   -0.0000 C   0  0  0  0  0  0  0  0  0  0  0  0
   11.5573    6.8987   -0.0000 C   0  0  0  0  0  0  0  0  0  0  0  0
   14.2143    2.5259   -0.0000 C   0  0  0  0  0  0  0  0  0  0  0  0
   12.9990    4.6348   -0.0000 C   0  0  0  0  0  0  0  0  0  0  0  0
   10.2348    7.6493   -0.0000 C   0  0  0  0  0  0  0  0  0  0  0  0
   15.2032    3.6578   -0.0000 C   0  0  0  0  0  0  0  0  0  0  0  0
   14.4526    4.9565   -0.0000 C   0  0  0  0  0  0  0  0  0  0  0  0
   16.6807    3.5149   -0.0000 O   0  0  0  0  0  0  0  0  0  0  0  0
  1  2  2  0
  1  3  2  0
  1  4  1  0
  1  5  1  0
  4  6  1  0
  5  7  2  0
  5  8  1  0
  7  9  1  0
  8 10  2  0
  9 11  2  0
  9 12  1  0
 11 13  1  0
 12 14  1  0
 13 15  1  0
 15 16  1  0
 16 17  2  0
 16 18  1  0
 19 18  1  0
 18 20  1  0
 19 21  1  0
 19 22  1  1
 21 23  2  0
 21 24  1  0
 22 25  1  0
 23 26  1  0
 24 27  2  0
 25 28  1  0
 25 29  1  0
 26 30  2  0
 28 31  1  0
 29 32  1  0
 31 33  1  6
 10 11  1  0
 14 15  1  0
 27 30  1  0
 31 32  1  0
M  END
>  <MolRegNo>  (1) 
332018

>  <m>  (1) 
=

>  <Value>  (1) 
320

>  <Unit>  (1) 
nM

>  <Type>  (1) 
IC50

>  <pValue>  (1) 
6.5

>  <Ligand Efficiency>  (1) 
0

>  <Binding Efficiency>  (1) 
0

>  <Surface Efficiency>  (1) 
0

>  <Assay Index>  (1) 
253815

>  <Assay Category>  (1) 


>  <Assay Organism>  (1) 
Homo sapiens

>  <Target ID>  (1) 
11365

>  <Target Name>  (1) 
Cytochrome P450 2D6

>  <Target Organism>  (1) 
Homo sapiens

>  <Target Description>  (1) 
Target is a single protein chain

>  <Sequence Accession>  (1) 
P10635

>  <Reference>  (1) 
Bioorg Med Chem Lett 15 (23), 5114-5119 (2005)

>  <Pubmed ID>  (1) 
16203140

>  <DOI>  (1) 
10.1016/j.bmcl.2005.08.094

$$$$
