4wnv_ligand_194
     RDKit          2D

 29 31  0  0  1  0  0  0  0  0999 V2000
    0.0000   -0.0000   -0.0000 O   0  0  0  0  0  0  0  0  0  0  0  0
   -0.0118   -1.4844   -0.0000 C   0  0  0  0  0  0  0  0  0  0  0  0
    1.2724   -2.2148   -0.0000 N   0  0  0  0  0  0  0  0  0  0  0  0
   -1.3195   -2.2148   -0.0000 C   0  0  0  0  0  0  0  0  0  0  0  0
    2.5565   -1.4608   -0.0000 C   0  0  0  0  0  0  0  0  0  0  0  0
    1.2606   -3.6992   -0.0000 C   0  0  0  0  0  0  0  0  0  0  0  0
   -2.6272   -1.4608   -0.0000 C   0  0  0  0  0  0  0  0  0  0  0  0
    2.5447    0.0471   -0.0000 C   0  0  0  0  0  0  0  0  0  0  0  0
    3.8524   -2.1913   -0.0000 C   0  0  0  0  0  0  0  0  0  0  0  0
   -2.6390    0.0471   -0.0000 C   0  0  0  0  0  0  0  0  0  0  0  0
   -3.9467   -2.1913   -0.0000 C   0  0  0  0  0  0  0  0  0  0  0  0
    3.8406    0.8011   -0.0000 C   0  0  0  0  0  0  0  0  0  0  0  0
    1.2370    0.7893   -0.0000 C   0  0  0  0  0  0  0  0  0  0  0  0
    5.1365   -1.4255   -0.0000 N   0  0  0  0  0  0  0  0  0  0  0  0
   -3.9584    0.8011   -0.0000 C   0  0  0  0  0  0  0  0  0  0  0  0
   -5.2543   -1.4373   -0.0000 C   0  0  0  0  0  0  0  0  0  0  0  0
    3.8288    2.3091   -0.0000 C   0  0  0  0  0  0  0  0  0  0  0  0
    1.2252    2.2973   -0.0000 C   0  0  0  0  0  0  0  0  0  0  0  0
    5.2661    0.0707   -0.0000 C   0  0  0  0  0  0  0  0  0  0  0  0
    6.4796   -2.0146   -0.0000 C   0  0  0  0  0  0  0  0  0  0  0  0
   -5.2661    0.0589   -0.0000 C   0  0  0  0  0  0  0  0  0  0  0  0
   -3.9702    2.3091   -0.0000 C   0  0  0  0  0  0  0  0  0  0  0  0
    2.5094    3.0749   -0.0000 C   0  0  0  0  0  0  0  0  0  0  0  0
    6.7152    0.4006   -0.0000 C   0  0  0  0  0  0  0  0  0  0  0  0
    7.4692   -0.8954   -0.0000 C   0  0  0  0  0  0  0  0  0  0  0  0
   -2.6861    3.0749   -0.0000 N   0  0  0  0  0  0  0  0  0  0  0  0
   -2.6979    4.5828   -0.0000 C   0  0  0  0  0  0  0  0  0  0  0  0
   -4.0056    5.3486   -0.0000 O   0  0  0  0  0  0  0  0  0  0  0  0
   -1.4137    5.3604   -0.0000 C   0  0  0  0  0  0  0  0  0  0  0  0
  1  2  2  0
  2  3  1  0
  2  4  1  0
  5  3  1  0
  3  6  1  0
  4  7  1  0
  5  8  1  0
  5  9  1  1
  7 10  2  0
  7 11  1  0
  8 12  2  0
  8 13  1  0
  9 14  1  0
 10 15  1  0
 11 16  2  0
 12 17  1  0
 13 18  2  0
 14 19  1  0
 14 20  1  0
 15 21  2  0
 15 22  1  0
 17 23  2  0
 19 24  1  0
 20 25  1  0
 22 26  1  0
 26 27  1  0
 27 28  2  0
 27 29  1  0
 16 21  1  0
 18 23  1  0
 24 25  1  0
M  END
>  <MolRegNo>  (1) 
319608

>  <m>  (1) 
=

>  <Value>  (1) 
600

>  <Unit>  (1) 
nM

>  <Type>  (1) 
IC50

>  <pValue>  (1) 
6.22

>  <Ligand Efficiency>  (1) 
0

>  <Binding Efficiency>  (1) 
0

>  <Surface Efficiency>  (1) 
0

>  <Assay Index>  (1) 
238842

>  <Assay Category>  (1) 


>  <Assay Organism>  (1) 
Homo sapiens

>  <Target ID>  (1) 
11365

>  <Target Name>  (1) 
Cytochrome P450 2D6

>  <Target Organism>  (1) 
Homo sapiens

>  <Target Description>  (1) 
Target is a single protein chain

>  <Sequence Accession>  (1) 
P10635

>  <Reference>  (1) 
Bioorg Med Chem Lett 15 (10), 2647-2652 (2005)

>  <Pubmed ID>  (1) 
15863335

>  <DOI>  (1) 
10.1016/j.bmcl.2005.03.020

$$$$
