4wnv_ligand_959
     RDKit          2D

 27 30  0  0  0  0  0  0  0  0999 V2000
    0.0000   -0.0000   -0.0000 N   0  0  0  0  0  0  0  0  0  0  0  0
    1.2856   -0.7262   -0.0000 C   0  0  0  0  0  0  0  0  0  0  0  0
   -0.0119    1.5237   -0.0000 C   0  0  0  0  0  0  0  0  0  0  0  0
    1.2737   -2.2142   -0.0000 N   0  0  0  0  0  0  0  0  0  0  0  0
    2.5713    0.0357   -0.0000 C   0  0  0  0  0  0  0  0  0  0  0  0
   -1.3214    2.2856   -0.0000 C   0  0  0  0  0  0  0  0  0  0  0  0
    1.2737    2.2856   -0.0000 C   0  0  0  0  0  0  0  0  0  0  0  0
   -0.0357   -2.9522   -0.0000 C   0  0  0  0  0  0  0  0  0  0  0  0
    3.9998   -0.4166   -0.0000 N   0  0  0  0  0  0  0  0  0  0  0  0
    2.5594    1.5594   -0.0000 C   0  0  0  0  0  0  0  0  0  0  0  0
   -1.3333    3.7974   -0.0000 C   0  0  0  0  0  0  0  0  0  0  0  0
   -2.6189    1.5475   -0.0000 C   0  0  0  0  0  0  0  0  0  0  0  0
   -0.0476   -4.4403   -0.0000 C   0  0  0  0  0  0  0  0  0  0  0  0
    4.8688    0.8214   -0.0000 C   0  0  0  0  0  0  0  0  0  0  0  0
    3.9879    2.0356   -0.0000 C   0  0  0  0  0  0  0  0  0  0  0  0
   -2.6427    4.5593   -0.0000 C   0  0  0  0  0  0  0  0  0  0  0  0
   -3.9284    2.2975   -0.0000 C   0  0  0  0  0  0  0  0  0  0  0  0
    1.2380   -5.1664   -0.0000 C   0  0  0  0  0  0  0  0  0  0  0  0
   -1.3571   -5.1664   -0.0000 C   0  0  0  0  0  0  0  0  0  0  0  0
    6.3568    0.8452   -0.0000 C   0  0  0  0  0  0  0  0  0  0  0  0
    4.4283    3.4760   -0.0000 C   0  0  0  0  0  0  0  0  0  0  0  0
   -3.9522    3.8212   -0.0000 C   0  0  0  0  0  0  0  0  0  0  0  0
    1.2380   -6.6425   -0.0000 C   0  0  0  0  0  0  0  0  0  0  0  0
    2.5237   -4.4045   -0.0000 C   0  0  0  0  0  0  0  0  0  0  0  0
   -1.3690   -6.6544   -0.0000 C   0  0  0  0  0  0  0  0  0  0  0  0
   -2.6665   -4.4045   -0.0000 C   0  0  0  0  0  0  0  0  0  0  0  0
   -0.0714   -7.3925   -0.0000 C   0  0  0  0  0  0  0  0  0  0  0  0
  1  2  2  0
  1  3  1  0
  2  4  1  0
  2  5  1  0
  3  6  1  0
  3  7  2  0
  4  8  1  0
  5  9  1  0
  5 10  2  0
  6 11  2  0
  6 12  1  0
  8 13  1  0
  9 14  1  0
 10 15  1  0
 11 16  1  0
 12 17  2  0
 13 18  2  0
 13 19  1  0
 14 20  1  0
 15 21  1  0
 16 22  2  0
 18 23  1  0
 18 24  1  0
 19 25  2  0
 19 26  1  0
 23 27  2  0
  7 10  1  0
 14 15  2  0
 17 22  1  0
 25 27  1  0
M  END
>  <MolRegNo>  (1) 
611675

>  <m>  (1) 
=

>  <Value>  (1) 
600

>  <Unit>  (1) 
nM

>  <Type>  (1) 
IC50

>  <pValue>  (1) 
6.22

>  <Ligand Efficiency>  (1) 
0

>  <Binding Efficiency>  (1) 
0

>  <Surface Efficiency>  (1) 
0

>  <Assay Index>  (1) 
464697

>  <Assay Category>  (1) 


>  <Assay Organism>  (1) 


>  <Target ID>  (1) 
11365

>  <Target Name>  (1) 
Cytochrome P450 2D6

>  <Target Organism>  (1) 
Homo sapiens

>  <Target Description>  (1) 
Target is a single protein chain

>  <Sequence Accession>  (1) 
P10635

>  <Reference>  (1) 
Bioorg Med Chem Lett 19 (23), 6813-6817 (2009)

>  <Pubmed ID>  (1) 
19846298

>  <DOI>  (1) 
10.1016/j.bmcl.2009.07.002

$$$$
