4wnv_ligand_251
     RDKit          2D

 29 32  0  0  0  0  0  0  0  0999 V2000
    0.0000   -0.0000   -0.0000 O   0  0  0  0  0  0  0  0  0  0  0  0
    1.2757    0.7678   -0.0000 C   0  0  0  0  0  0  0  0  0  0  0  0
   -1.3111    0.7441   -0.0000 C   0  0  0  0  0  0  0  0  0  0  0  0
    2.5750    0.0354   -0.0000 C   0  0  0  0  0  0  0  0  0  0  0  0
    1.2520    2.2679   -0.0000 C   0  0  0  0  0  0  0  0  0  0  0  0
   -2.6104   -0.0000   -0.0000 C   0  0  0  0  0  0  0  0  0  0  0  0
    3.8506    0.8032   -0.0000 C   0  0  0  0  0  0  0  0  0  0  0  0
    2.5277    3.0474   -0.0000 C   0  0  0  0  0  0  0  0  0  0  0  0
   -3.9215    0.7678   -0.0000 C   0  0  0  0  0  0  0  0  0  0  0  0
    3.8152    2.3151   -0.0000 C   0  0  0  0  0  0  0  0  0  0  0  0
   -5.2326    0.0354   -0.0000 N   0  0  0  0  0  0  0  0  0  0  0  0
    5.0909    3.0829   -0.0000 C   0  0  0  0  0  0  0  0  0  0  0  0
   -5.2444   -1.4528   -0.0000 C   0  0  0  0  0  0  0  0  0  0  0  0
   -6.5319    0.7914   -0.0000 C   0  0  0  0  0  0  0  0  0  0  0  0
    6.3902    2.3505   -0.0000 C   0  0  0  0  0  0  0  0  0  0  0  0
    5.0554    4.5830   -0.0000 C   0  0  0  0  0  0  0  0  0  0  0  0
   -6.5437   -2.1852   -0.0000 C   0  0  0  0  0  0  0  0  0  0  0  0
   -7.8430    0.0591   -0.0000 C   0  0  0  0  0  0  0  0  0  0  0  0
    7.6658    3.1183   -0.0000 N   0  0  0  0  0  0  0  0  0  0  0  0
    6.3311    5.3625   -0.0000 N   0  0  0  0  0  0  0  0  0  0  0  0
   -7.8548   -1.4292   -0.0000 C   0  0  0  0  0  0  0  0  0  0  0  0
    7.6422    4.6302   -0.0000 C   0  0  0  0  0  0  0  0  0  0  0  0
   -9.1659   -2.1616   -0.0000 C   0  0  0  0  0  0  0  0  0  0  0  0
    8.9179    5.4098   -0.0000 N   0  0  0  0  0  0  0  0  0  0  0  0
  -10.4652   -1.4056   -0.0000 C   0  0  0  0  0  0  0  0  0  0  0  0
  -11.8472   -2.0080   -0.0000 N   0  0  0  0  0  0  0  0  0  0  0  0
  -10.6424    0.0945   -0.0000 C   0  0  0  0  0  0  0  0  0  0  0  0
  -12.8630   -0.8741   -0.0000 C   0  0  0  0  0  0  0  0  0  0  0  0
  -12.1189    0.4252   -0.0000 N   0  0  0  0  0  0  0  0  0  0  0  0
  1  2  1  0
  1  3  1  0
  2  4  2  0
  2  5  1  0
  3  6  1  0
  4  7  1  0
  5  8  2  0
  6  9  1  0
  7 10  2  0
  9 11  1  0
 10 12  1  0
 11 13  1  0
 11 14  1  0
 12 15  2  0
 12 16  1  0
 13 17  1  0
 14 18  1  0
 15 19  1  0
 16 20  2  0
 17 21  1  0
 19 22  2  0
 21 23  1  0
 22 24  1  0
 23 25  1  0
 25 26  1  0
 25 27  2  0
 26 28  2  0
 27 29  1  0
  8 10  1  0
 18 21  1  0
 20 22  1  0
 28 29  1  0
M  END
>  <MolRegNo>  (1) 
339591

>  <m>  (1) 
=

>  <Value>  (1) 
12000

>  <Unit>  (1) 
nM

>  <Type>  (1) 
IC50

>  <pValue>  (1) 
4.92

>  <Ligand Efficiency>  (1) 
0

>  <Binding Efficiency>  (1) 
0

>  <Surface Efficiency>  (1) 
0

>  <Assay Index>  (1) 
257619

>  <Assay Category>  (1) 


>  <Assay Organism>  (1) 
Homo sapiens

>  <Target ID>  (1) 
11365

>  <Target Name>  (1) 
Cytochrome P450 2D6

>  <Target Organism>  (1) 
Homo sapiens

>  <Target Description>  (1) 
Target is a single protein chain

>  <Sequence Accession>  (1) 
P10635

>  <Reference>  (1) 
Bioorg Med Chem Lett 16 (4), 989-994 (2006)

>  <Pubmed ID>  (1) 
16297617

>  <DOI>  (1) 
10.1016/j.bmcl.2005.10.087

$$$$
