4wnv_ligand_1084
     RDKit          2D

 23 25  0  0  0  0  0  0  0  0999 V2000
    0.0000   -0.0000   -0.0000 O   0  0  0  0  0  0  0  0  0  0  0  0
   -0.7692   -1.2899   -0.0000 C   0  0  0  0  0  0  0  0  0  0  0  0
   -0.0355   -2.5798   -0.0000 C   0  0  0  0  0  0  0  0  0  0  0  0
   -2.2839   -1.2781   -0.0000 C   0  0  0  0  0  0  0  0  0  0  0  0
    1.4437   -2.5561   -0.0000 N   0  0  0  0  0  0  0  0  0  0  0  0
   -0.8047   -3.8578   -0.0000 C   0  0  0  0  0  0  0  0  0  0  0  0
   -1.7987   -2.6863   -0.0000 C   0  0  0  0  0  0  0  0  0  0  0  0
   -3.7987   -1.3017   -0.0000 C   0  0  0  0  0  0  0  0  0  0  0  0
   -2.7810    0.1538   -0.0000 C   0  0  0  0  0  0  0  0  0  0  0  0
    2.1774   -3.8460   -0.0000 C   0  0  0  0  0  0  0  0  0  0  0  0
   -0.0710   -5.1477   -0.0000 C   0  0  0  0  0  0  0  0  0  0  0  0
   -2.9940   -3.5975   -0.0000 N   0  0  0  0  0  0  0  0  0  0  0  0
   -4.2365   -2.7336   -0.0000 C   0  0  0  0  0  0  0  0  0  0  0  0
   -4.2720    0.4615   -0.0000 C   0  0  0  0  0  0  0  0  0  0  0  0
    1.4082   -5.1359   -0.0000 C   0  0  0  0  0  0  0  0  0  0  0  0
    3.6567   -3.8342   -0.0000 C   0  0  0  0  0  0  0  0  0  0  0  0
   -4.7690    1.8934   -0.0000 C   0  0  0  0  0  0  0  0  0  0  0  0
    2.1419   -6.4258   -0.0000 C   0  0  0  0  0  0  0  0  0  0  0  0
    4.4022   -5.1122   -0.0000 C   0  0  0  0  0  0  0  0  0  0  0  0
   -6.2601    2.2011   -0.0000 C   0  0  0  0  0  0  0  0  0  0  0  0
   -3.7868    3.0413   -0.0000 C   0  0  0  0  0  0  0  0  0  0  0  0
   -5.5501    3.2070   -0.0000 C   0  0  0  0  0  0  0  0  0  0  0  0
    3.6330   -6.4139   -0.0000 C   0  0  0  0  0  0  0  0  0  0  0  0
  1  2  2  0
  2  3  1  0
  2  4  1  0
  3  5  2  0
  3  6  1  0
  4  7  1  0
  4  8  1  0
  4  9  1  0
  5 10  1  0
  6 11  2  0
  7 12  1  0
  8 13  1  0
  9 14  1  0
 10 15  2  0
 10 16  1  0
 14 17  1  0
 15 18  1  0
 16 19  2  0
 17 20  1  0
 17 21  1  0
 17 22  1  0
 18 23  2  0
 11 15  1  0
 12 13  1  0
 19 23  1  0
M  END
>  <MolRegNo>  (1) 
690693

>  <m>  (1) 
=

>  <Value>  (1) 
600

>  <Unit>  (1) 
nM

>  <Type>  (1) 
IC50

>  <pValue>  (1) 
6.22

>  <Ligand Efficiency>  (1) 
0

>  <Binding Efficiency>  (1) 
0

>  <Surface Efficiency>  (1) 
0

>  <Assay Index>  (1) 
497257

>  <Assay Category>  (1) 


>  <Assay Organism>  (1) 


>  <Target ID>  (1) 
11365

>  <Target Name>  (1) 
Cytochrome P450 2D6

>  <Target Organism>  (1) 
Homo sapiens

>  <Target Description>  (1) 
Target is a single protein chain

>  <Sequence Accession>  (1) 
P10635

>  <Reference>  (1) 
Bioorg Med Chem Lett 20 (18), 5559-5566 (2010)

>  <Pubmed ID>  (1) 
20691589

>  <DOI>  (1) 
10.1016/j.bmcl.2010.07.020

$$$$
