4wnv_ligand_919
     RDKit          2D

 29 31  0  0  0  0  0  0  0  0999 V2000
    0.0000   -0.0000   -0.0000 Cl  0  0  0  0  0  0  0  0  0  0  0  0
   -0.0119    1.5123   -0.0000 C   0  0  0  0  0  0  0  0  0  0  0  0
   -1.3218    2.2744   -0.0000 C   0  0  0  0  0  0  0  0  0  0  0  0
    1.2861    2.2744   -0.0000 C   0  0  0  0  0  0  0  0  0  0  0  0
   -2.6317    1.5361   -0.0000 C   0  0  0  0  0  0  0  0  0  0  0  0
   -1.3337    3.7986   -0.0000 C   0  0  0  0  0  0  0  0  0  0  0  0
    1.2742    3.7986   -0.0000 C   0  0  0  0  0  0  0  0  0  0  0  0
   -3.9415    0.7978   -0.0000 N   0  0  0  0  0  0  0  0  0  0  0  0
   -0.0476    4.5608   -0.0000 C   0  0  0  0  0  0  0  0  0  0  0  0
    2.5602    4.5608   -0.0000 N   0  0  0  0  0  0  0  0  0  0  0  0
    3.8463    3.8225   -0.0000 C   0  0  0  0  0  0  0  0  0  0  0  0
    2.5483    6.0731   -0.0000 C   0  0  0  0  0  0  0  0  0  0  0  0
    4.0011    2.3340   -0.0000 C   0  0  0  0  0  0  0  0  0  0  0  0
    5.2157    4.4417   -0.0000 C   0  0  0  0  0  0  0  0  0  0  0  0
    3.8344    6.8352   -0.0000 C   0  0  0  0  0  0  0  0  0  0  0  0
    5.4539    2.0363   -0.0000 N   0  0  0  0  0  0  0  0  0  0  0  0
    6.2160    3.3461   -0.0000 C   0  0  0  0  0  0  0  0  0  0  0  0
    3.8106    8.3356   -0.0000 C   0  0  0  0  0  0  0  0  0  0  0  0
    5.1204    6.0969   -0.0000 C   0  0  0  0  0  0  0  0  0  0  0  0
    6.0493    0.6788   -0.0000 C   0  0  0  0  0  0  0  0  0  0  0  0
    5.0847    9.1096   -0.0000 C   0  0  0  0  0  0  0  0  0  0  0  0
    2.4888    9.0858   -0.0000 C   0  0  0  0  0  0  0  0  0  0  0  0
    6.4065    6.8590   -0.0000 C   0  0  0  0  0  0  0  0  0  0  0  0
    5.1562   -0.5240   -0.0000 O   0  0  0  0  0  0  0  0  0  0  0  0
    7.5258    0.5359   -0.0000 O   0  0  0  0  0  0  0  0  0  0  0  0
    6.3827    8.3713   -0.0000 C   0  0  0  0  0  0  0  0  0  0  0  0
    7.6926    6.1207   -0.0000 F   0  0  0  0  0  0  0  0  0  0  0  0
    8.1332   -0.8217   -0.0000 C   0  0  0  0  0  0  0  0  0  0  0  0
    9.6216   -0.9645   -0.0000 C   0  0  0  0  0  0  0  0  0  0  0  0
  1  2  1  0
  2  3  2  0
  2  4  1  0
  3  5  1  0
  3  6  1  0
  4  7  2  0
  5  8  3  0
  6  9  2  0
  7 10  1  0
 11 10  1  1
 10 12  1  0
 11 13  1  0
 11 14  1  0
 12 15  1  0
 13 16  1  0
 14 17  1  0
 15 18  2  0
 15 19  1  0
 16 20  1  0
 18 21  1  0
 18 22  1  0
 19 23  2  0
 20 24  2  0
 20 25  1  0
 21 26  2  0
 23 27  1  0
 25 28  1  0
 28 29  1  0
  7  9  1  0
 16 17  1  0
 23 26  1  0
M  END
>  <MolRegNo>  (1) 
590197

>  <m>  (1) 
=

>  <Value>  (1) 
22000

>  <Unit>  (1) 
nM

>  <Type>  (1) 
IC50

>  <pValue>  (1) 
4.66

>  <Ligand Efficiency>  (1) 
0

>  <Binding Efficiency>  (1) 
0

>  <Surface Efficiency>  (1) 
0

>  <Assay Index>  (1) 
452357

>  <Assay Category>  (1) 


>  <Assay Organism>  (1) 


>  <Target ID>  (1) 
11365

>  <Target Name>  (1) 
Cytochrome P450 2D6

>  <Target Organism>  (1) 
Homo sapiens

>  <Target Description>  (1) 
Target is a single protein chain

>  <Sequence Accession>  (1) 
P10635

>  <Reference>  (1) 
Bioorg Med Chem Lett 20 (1), 371-374 (2010)

>  <Pubmed ID>  (1) 
19926282

>  <DOI>  (1) 
10.1016/j.bmcl.2009.10.092

$$$$
