4wnv_ligand_661
     RDKit          2D

 35 40  0  0  0  0  0  0  0  0999 V2000
    0.0000   -0.0000   -0.0000 F   0  0  0  0  0  0  0  0  0  0  0  0
   -1.3031    0.7410   -0.0000 C   0  0  0  0  0  0  0  0  0  0  0  0
   -2.6061   -0.0000   -0.0000 C   0  0  0  0  0  0  0  0  0  0  0  0
   -1.3414    2.2612   -0.0000 C   0  0  0  0  0  0  0  0  0  0  0  0
   -3.9220    0.7410   -0.0000 C   0  0  0  0  0  0  0  0  0  0  0  0
   -2.6572    3.0022   -0.0000 C   0  0  0  0  0  0  0  0  0  0  0  0
   -3.9475    2.2484   -0.0000 C   0  0  0  0  0  0  0  0  0  0  0  0
   -5.2123   -0.0000   -0.0000 C   0  0  0  0  0  0  0  0  0  0  0  0
   -5.2634    2.9894   -0.0000 C   0  0  0  0  0  0  0  0  0  0  0  0
   -6.5281    0.7410   -0.0000 C   0  0  0  0  0  0  0  0  0  0  0  0
   -6.5409    2.2484   -0.0000 C   0  0  0  0  0  0  0  0  0  0  0  0
   -7.8568    2.9894   -0.0000 C   0  0  0  0  0  0  0  0  0  0  0  0
   -9.1598    2.2357   -0.0000 N   0  0  0  0  0  0  0  0  0  0  0  0
  -10.0285    3.4876   -0.0000 C   0  0  0  0  0  0  0  0  0  0  0  0
  -10.4373    2.5423   -0.0000 C   0  0  0  0  0  0  0  0  0  0  0  0
  -11.6638    2.7594   -0.0000 C   0  0  0  0  0  0  0  0  0  0  0  0
   -9.7347    5.0845   -0.0000 C   0  0  0  0  0  0  0  0  0  0  0  0
  -11.9831    1.8141   -0.0000 C   0  0  0  0  0  0  0  0  0  0  0  0
  -10.4629    3.9859   -0.0000 C   0  0  0  0  0  0  0  0  0  0  0  0
  -12.8774    3.0916   -0.0000 C   0  0  0  0  0  0  0  0  0  0  0  0
  -14.1677    2.5295   -0.0000 N   0  0  0  0  0  0  0  0  0  0  0  0
  -15.4836    3.2832   -0.0000 C   0  0  0  0  0  0  0  0  0  0  0  0
  -15.4963    4.7779   -0.0000 O   0  0  0  0  0  0  0  0  0  0  0  0
  -16.7866    2.5423   -0.0000 C   0  0  0  0  0  0  0  0  0  0  0  0
  -18.1025    3.2832   -0.0000 C   0  0  0  0  0  0  0  0  0  0  0  0
  -16.7994    1.0603   -0.0000 C   0  0  0  0  0  0  0  0  0  0  0  0
  -18.1280    4.7907   -0.0000 C   0  0  0  0  0  0  0  0  0  0  0  0
  -19.4055    2.5423   -0.0000 C   0  0  0  0  0  0  0  0  0  0  0  0
  -18.0897    0.3194   -0.0000 C   0  0  0  0  0  0  0  0  0  0  0  0
  -16.8505    5.5444   -0.0000 C   0  0  0  0  0  0  0  0  0  0  0  0
  -19.4311    5.5317   -0.0000 C   0  0  0  0  0  0  0  0  0  0  0  0
  -19.4183    1.0603   -0.0000 C   0  0  0  0  0  0  0  0  0  0  0  0
  -16.8633    7.0519   -0.0000 C   0  0  0  0  0  0  0  0  0  0  0  0
  -19.4566    7.0391   -0.0000 C   0  0  0  0  0  0  0  0  0  0  0  0
  -18.1663    7.8057   -0.0000 C   0  0  0  0  0  0  0  0  0  0  0  0
  1  2  1  0
  2  3  2  0
  2  4  1  0
  3  5  1  0
  4  6  2  0
  5  7  2  0
  5  8  1  0
  7  9  1  0
  8 10  2  0
  9 11  2  0
 11 12  1  0
 12 13  1  0
 13 14  1  0
 13 15  1  0
 14 16  1  0
 14 17  1  0
 15 18  1  0
 15 19  1  0
 16 20  1  0
 20 21  1  0
 21 22  1  0
 22 23  2  0
 22 24  1  0
 24 25  1  0
 24 26  2  0
 25 27  1  0
 25 28  2  0
 26 29  1  0
 27 30  2  0
 27 31  1  0
 28 32  1  0
 30 33  1  0
 31 34  2  0
 33 35  2  0
  6  7  1  0
 10 11  1  0
 17 19  1  0
 18 20  1  0
 29 32  2  0
 34 35  1  0
M  END
>  <MolRegNo>  (1) 
491930

>  <m>  (1) 
=

>  <Value>  (1) 
400

>  <Unit>  (1) 
nM

>  <Type>  (1) 
IC50

>  <pValue>  (1) 
6.4

>  <Ligand Efficiency>  (1) 
0

>  <Binding Efficiency>  (1) 
0

>  <Surface Efficiency>  (1) 
0

>  <Assay Index>  (1) 
384135

>  <Assay Category>  (1) 


>  <Assay Organism>  (1) 
Homo sapiens

>  <Target ID>  (1) 
11365

>  <Target Name>  (1) 
Cytochrome P450 2D6

>  <Target Organism>  (1) 
Homo sapiens

>  <Target Description>  (1) 
Target is a single protein chain

>  <Sequence Accession>  (1) 
P10635

>  <Reference>  (1) 
Bioorg Med Chem 16 (18), 8607-8618 (2008)

>  <Pubmed ID>  (1) 
18752960

>  <DOI>  (1) 
10.1016/j.bmc.2008.08.006

$$$$
