4wnv_ligand_335
     RDKit          2D

 28 30  0  0  1  0  0  0  0  0999 V2000
    0.0000   -0.0000   -0.0000 O   0  0  0  0  0  0  0  0  0  0  0  0
   -0.0119   -1.4845   -0.0000 C   0  0  0  0  0  0  0  0  0  0  0  0
    1.2707   -2.2207   -0.0000 N   0  0  0  0  0  0  0  0  0  0  0  0
   -1.3182   -2.2207   -0.0000 C   0  0  0  0  0  0  0  0  0  0  0  0
    2.5533   -1.4607   -0.0000 C   0  0  0  0  0  0  0  0  0  0  0  0
    1.2588   -3.7052   -0.0000 C   0  0  0  0  0  0  0  0  0  0  0  0
   -2.6245   -1.4607   -0.0000 C   0  0  0  0  0  0  0  0  0  0  0  0
    2.5414    0.0475   -0.0000 C   0  0  0  0  0  0  0  0  0  0  0  0
    3.8358   -2.1970   -0.0000 C   0  0  0  0  0  0  0  0  0  0  0  0
   -2.6364    0.0475   -0.0000 O   0  0  0  0  0  0  0  0  0  0  0  0
   -3.9308   -2.1970   -0.0000 N   0  0  0  0  0  0  0  0  0  0  0  0
    1.2351    0.8075   -0.0000 C   0  0  0  0  0  0  0  0  0  0  0  0
    3.8358    0.8075   -0.0000 C   0  0  0  0  0  0  0  0  0  0  0  0
    5.1184   -1.4370   -0.0000 N   0  0  0  0  0  0  0  0  0  0  0  0
   -5.2372   -1.4370   -0.0000 C   0  0  0  0  0  0  0  0  0  0  0  0
    1.2232    2.3276   -0.0000 C   0  0  0  0  0  0  0  0  0  0  0  0
    3.8240    2.3276   -0.0000 C   0  0  0  0  0  0  0  0  0  0  0  0
    6.4722   -2.0307   -0.0000 C   0  0  0  0  0  0  0  0  0  0  0  0
    5.2609    0.0713   -0.0000 C   0  0  0  0  0  0  0  0  0  0  0  0
   -5.2490    0.0713   -0.0000 C   0  0  0  0  0  0  0  0  0  0  0  0
   -6.5435   -2.1732   -0.0000 C   0  0  0  0  0  0  0  0  0  0  0  0
    2.5058    3.0877   -0.0000 C   0  0  0  0  0  0  0  0  0  0  0  0
    7.4579   -0.9026   -0.0000 C   0  0  0  0  0  0  0  0  0  0  0  0
    6.7097    0.3919   -0.0000 C   0  0  0  0  0  0  0  0  0  0  0  0
   -6.5554    0.8313   -0.0000 C   0  0  0  0  0  0  0  0  0  0  0  0
   -7.8498   -1.4132   -0.0000 C   0  0  0  0  0  0  0  0  0  0  0  0
    8.9305   -1.0451   -0.0000 O   0  0  0  0  0  0  0  0  0  0  0  0
   -7.8617    0.0950   -0.0000 C   0  0  0  0  0  0  0  0  0  0  0  0
  1  2  2  0
  2  3  1  0
  2  4  1  0
  5  3  1  0
  3  6  1  0
  4  7  1  0
  5  8  1  0
  5  9  1  1
  7 10  2  0
  7 11  1  0
  8 12  2  0
  8 13  1  0
  9 14  1  0
 11 15  1  0
 12 16  1  0
 13 17  2  0
 14 18  1  0
 14 19  1  0
 15 20  2  0
 15 21  1  0
 16 22  2  0
 18 23  1  0
 19 24  1  0
 20 25  1  0
 21 26  2  0
 23 27  1  6
 25 28  2  0
 17 22  1  0
 23 24  1  0
 26 28  1  0
M  END
>  <MolRegNo>  (1) 
384322

>  <m>  (1) 
=

>  <Value>  (1) 
5300

>  <Unit>  (1) 
nM

>  <Type>  (1) 
IC50

>  <pValue>  (1) 
5.28

>  <Ligand Efficiency>  (1) 
0

>  <Binding Efficiency>  (1) 
0

>  <Surface Efficiency>  (1) 
0

>  <Assay Index>  (1) 
287299

>  <Assay Category>  (1) 


>  <Assay Organism>  (1) 


>  <Target ID>  (1) 
11365

>  <Target Name>  (1) 
Cytochrome P450 2D6

>  <Target Organism>  (1) 
Homo sapiens

>  <Target Description>  (1) 
Target is a single protein chain

>  <Sequence Accession>  (1) 
P10635

>  <Reference>  (1) 
Bioorg Med Chem Lett 17 (7), 1951-1955 (2007)

>  <Pubmed ID>  (1) 
17307360

>  <DOI>  (1) 
10.1016/j.bmcl.2007.01.053

$$$$
