4wnv_ligand_814
     RDKit          2D

 41 45  0  0  0  0  0  0  0  0999 V2000
    0.0000   -0.0000   -0.0000 Cl  0  0  0  0  0  0  0  0  0  0  0  0
   -1.4678    0.3207   -0.0000 C   0  0  0  0  0  0  0  0  0  0  0  0
   -1.9735    1.7391   -0.0000 C   0  0  0  0  0  0  0  0  0  0  0  0
   -2.4669   -0.7894   -0.0000 C   0  0  0  0  0  0  0  0  0  0  0  0
   -3.4413    2.0475   -0.0000 C   0  0  0  0  0  0  0  0  0  0  0  0
   -3.9470   -0.4810   -0.0000 C   0  0  0  0  0  0  0  0  0  0  0  0
   -4.4280    0.9497   -0.0000 C   0  0  0  0  0  0  0  0  0  0  0  0
   -5.9081    1.2704   -0.0000 C   0  0  0  0  0  0  0  0  0  0  0  0
   -6.4015    2.6889   -0.0000 N   0  0  0  0  0  0  0  0  0  0  0  0
   -7.8446    3.1452   -0.0000 C   0  0  0  0  0  0  0  0  0  0  0  0
   -5.5381    3.9223   -0.0000 C   0  0  0  0  0  0  0  0  0  0  0  0
   -7.8693    4.6624   -0.0000 C   0  0  0  0  0  0  0  0  0  0  0  0
   -9.1767    2.4052   -0.0000 C   0  0  0  0  0  0  0  0  0  0  0  0
   -6.4508    5.1311   -0.0000 C   0  0  0  0  0  0  0  0  0  0  0  0
   -4.0703    3.9346   -0.0000 C   0  0  0  0  0  0  0  0  0  0  0  0
   -9.1890    5.4148   -0.0000 C   0  0  0  0  0  0  0  0  0  0  0  0
  -10.4718    3.1699   -0.0000 C   0  0  0  0  0  0  0  0  0  0  0  0
   -6.0068    6.5742   -0.0000 S   0  0  0  0  0  0  0  0  0  0  0  0
   -3.1699    5.4148   -0.0000 C   0  0  0  0  0  0  0  0  0  0  0  0
  -10.4841    4.6870   -0.0000 C   0  0  0  0  0  0  0  0  0  0  0  0
   -7.0429    7.6966   -0.0000 C   0  0  0  0  0  0  0  0  0  0  0  0
   -2.0845    4.5267   -0.0000 C   0  0  0  0  0  0  0  0  0  0  0  0
   -4.1073    6.5495   -0.0000 C   0  0  0  0  0  0  0  0  0  0  0  0
   -1.9241    6.0068   -0.0000 C   0  0  0  0  0  0  0  0  0  0  0  0
  -11.7792    5.4394   -0.0000 O   0  0  0  0  0  0  0  0  0  0  0  0
   -6.5865    9.1397   -0.0000 C   0  0  0  0  0  0  0  0  0  0  0  0
   -8.5107    7.3882   -0.0000 C   0  0  0  0  0  0  0  0  0  0  0  0
   -5.7108    8.3873   -0.0000 C   0  0  0  0  0  0  0  0  0  0  0  0
   -2.2572    3.4043   -0.0000 O   0  0  0  0  0  0  0  0  0  0  0  0
   -0.5304    4.5390   -0.0000 O   0  0  0  0  0  0  0  0  0  0  0  0
  -13.0867    4.6994   -0.0000 C   0  0  0  0  0  0  0  0  0  0  0  0
  -14.4064    5.4764   -0.0000 C   0  0  0  0  0  0  0  0  0  0  0  0
  -15.7139    4.7364   -0.0000 N   0  0  0  0  0  0  0  0  0  0  0  0
  -14.3941    6.9935   -0.0000 C   0  0  0  0  0  0  0  0  0  0  0  0
  -17.0337    5.5258   -0.0000 C   0  0  0  0  0  0  0  0  0  0  0  0
  -15.6892    7.7583   -0.0000 C   0  0  0  0  0  0  0  0  0  0  0  0
  -17.0213    7.0429   -0.0000 C   0  0  0  0  0  0  0  0  0  0  0  0
  -18.3411    4.7857   -0.0000 C   0  0  0  0  0  0  0  0  0  0  0  0
  -18.3411    7.8076   -0.0000 C   0  0  0  0  0  0  0  0  0  0  0  0
  -19.6609    5.5628   -0.0000 C   0  0  0  0  0  0  0  0  0  0  0  0
  -19.6485    7.0799   -0.0000 C   0  0  0  0  0  0  0  0  0  0  0  0
  1  2  1  0
  2  3  2  0
  2  4  1  0
  3  5  1  0
  4  6  2  0
  5  7  2  0
  7  8  1  0
  8  9  1  0
  9 10  1  0
  9 11  1  0
 10 12  2  0
 10 13  1  0
 11 14  2  0
 11 15  1  0
 12 16  1  0
 13 17  2  0
 14 18  1  0
 15 19  1  0
 16 20  2  0
 18 21  1  0
 19 22  1  0
 19 23  1  0
 19 24  1  0
 20 25  1  0
 21 26  1  0
 21 27  1  0
 21 28  1  0
 22 29  2  0
 22 30  1  0
 25 31  1  0
 31 32  1  0
 32 33  2  0
 32 34  1  0
 33 35  1  0
 34 36  2  0
 35 37  2  0
 35 38  1  0
 37 39  1  0
 38 40  2  0
 39 41  2  0
  6  7  1  0
 12 14  1  0
 17 20  1  0
 36 37  1  0
 40 41  1  0
M  END
>  <MolRegNo>  (1) 
17620

>  <m>  (1) 
=

>  <Value>  (1) 
11

>  <Unit>  (1) 
nM

>  <Type>  (1) 
IC50

>  <pValue>  (1) 
7.96

>  <Ligand Efficiency>  (1) 
0

>  <Binding Efficiency>  (1) 
0

>  <Surface Efficiency>  (1) 
0

>  <Assay Index>  (1) 
428886

>  <Assay Category>  (1) 


>  <Assay Organism>  (1) 


>  <Target ID>  (1) 
11365

>  <Target Name>  (1) 
Cytochrome P450 2D6

>  <Target Organism>  (1) 
Homo sapiens

>  <Target Description>  (1) 
Target is a single protein chain

>  <Sequence Accession>  (1) 
P10635

>  <Reference>  (1) 
J Med Chem 52 (19), 5803-5815 (2009)

>  <Pubmed ID>  (1) 
19739647

>  <DOI>  (1) 
10.1021/jm900945d

$$$$
