4wnv_ligand_975
     RDKit          2D

 28 31  0  0  0  0  0  0  0  0999 V2000
    0.0000   -0.0000   -0.0000 S   0  0  0  0  0  0  0  0  0  0  0  0
    1.2821    0.7716   -0.0000 O   0  0  0  0  0  0  0  0  0  0  0  0
    0.7241   -1.2821   -0.0000 O   0  0  0  0  0  0  0  0  0  0  0  0
   -1.3058   -0.7479   -0.0000 C   0  0  0  0  0  0  0  0  0  0  0  0
   -0.0119    1.5195   -0.0000 C   0  0  0  0  0  0  0  0  0  0  0  0
   -2.6235    0.0119   -0.0000 C   0  0  0  0  0  0  0  0  0  0  0  0
   -1.3058   -2.2318   -0.0000 C   0  0  0  0  0  0  0  0  0  0  0  0
    1.2940    2.2912   -0.0000 C   0  0  0  0  0  0  0  0  0  0  0  0
   -3.9294   -0.7360   -0.0000 C   0  0  0  0  0  0  0  0  0  0  0  0
   -2.6117   -2.9797   -0.0000 C   0  0  0  0  0  0  0  0  0  0  0  0
    2.5879    1.5551   -0.0000 C   0  0  0  0  0  0  0  0  0  0  0  0
    1.2821    3.7988   -0.0000 C   0  0  0  0  0  0  0  0  0  0  0  0
   -3.9294   -2.2318   -0.0000 C   0  0  0  0  0  0  0  0  0  0  0  0
    3.8700    2.3268   -0.0000 C   0  0  0  0  0  0  0  0  0  0  0  0
    2.5761    4.5586   -0.0000 C   0  0  0  0  0  0  0  0  0  0  0  0
   -5.2352   -2.9797   -0.0000 C   0  0  0  0  0  0  0  0  0  0  0  0
    3.8582    3.8463   -0.0000 C   0  0  0  0  0  0  0  0  0  0  0  0
    5.0215    1.4008   -0.0000 C   0  0  0  0  0  0  0  0  0  0  0  0
   -6.5529   -2.2199   -0.0000 C   0  0  0  0  0  0  0  0  0  0  0  0
   -5.2352   -4.4636   -0.0000 C   0  0  0  0  0  0  0  0  0  0  0  0
    5.0215    4.7841   -0.0000 C   0  0  0  0  0  0  0  0  0  0  0  0
    6.4698    1.7451   -0.0000 C   0  0  0  0  0  0  0  0  0  0  0  0
   -7.8588   -2.9678   -0.0000 C   0  0  0  0  0  0  0  0  0  0  0  0
   -6.5411   -5.2115   -0.0000 C   0  0  0  0  0  0  0  0  0  0  0  0
    6.4698    4.4636   -0.0000 C   0  0  0  0  0  0  0  0  0  0  0  0
    7.1109    3.1103   -0.0000 N   0  0  0  0  0  0  0  0  0  0  0  0
   -7.8588   -4.4636   -0.0000 C   0  0  0  0  0  0  0  0  0  0  0  0
   -9.1646   -5.2115   -0.0000 F   0  0  0  0  0  0  0  0  0  0  0  0
  1  2  2  0
  1  3  2  0
  1  4  1  0
  1  5  1  0
  4  6  2  0
  4  7  1  0
  5  8  1  0
  6  9  1  0
  7 10  2  0
  8 11  2  0
  8 12  1  0
  9 13  2  0
 11 14  1  0
 12 15  2  0
 13 16  1  0
 14 17  2  0
 14 18  1  0
 16 19  2  0
 16 20  1  0
 17 21  1  0
 18 22  1  0
 19 23  1  0
 20 24  2  0
 21 25  1  0
 22 26  1  0
 23 27  2  0
 27 28  1  0
 10 13  1  0
 15 17  1  0
 24 27  1  0
 25 26  1  0
M  END
>  <MolRegNo>  (1) 
617619

>  <m>  (1) 
=

>  <Value>  (1) 
200

>  <Unit>  (1) 
nM

>  <Type>  (1) 
IC50

>  <pValue>  (1) 
6.7

>  <Ligand Efficiency>  (1) 
0

>  <Binding Efficiency>  (1) 
0

>  <Surface Efficiency>  (1) 
0

>  <Assay Index>  (1) 
468007

>  <Assay Category>  (1) 


>  <Assay Organism>  (1) 
Homo sapiens

>  <Target ID>  (1) 
11365

>  <Target Name>  (1) 
Cytochrome P450 2D6

>  <Target Organism>  (1) 
Homo sapiens

>  <Target Description>  (1) 
Target is a single protein chain

>  <Sequence Accession>  (1) 
P10635

>  <Reference>  (1) 
Bioorg Med Chem Lett 19 (22), 6452-6458 (2009)

>  <Pubmed ID>  (1) 
19804969

>  <DOI>  (1) 
10.1016/j.bmcl.2009.09.027

$$$$
