4wnv_ligand_343
     RDKit          2D

 30 34  0  0  0  0  0  0  0  0999 V2000
    0.0000   -0.0000   -0.0000 O   0  0  0  0  0  0  0  0  0  0  0  0
   -0.7669    1.3097   -0.0000 C   0  0  0  0  0  0  0  0  0  0  0  0
   -2.2772    1.3215   -0.0000 N   0  0  0  0  0  0  0  0  0  0  0  0
   -0.0236    2.6194   -0.0000 C   0  0  0  0  0  0  0  0  0  0  0  0
   -3.0441    2.6312   -0.0000 C   0  0  0  0  0  0  0  0  0  0  0  0
   -0.7905    3.9290   -0.0000 C   0  0  0  0  0  0  0  0  0  0  0  0
    1.4631    2.6312   -0.0000 C   0  0  0  0  0  0  0  0  0  0  0  0
   -2.3008    3.9408   -0.0000 C   0  0  0  0  0  0  0  0  0  0  0  0
   -0.0472    5.2387   -0.0000 N   0  0  0  0  0  0  0  0  0  0  0  0
    2.3362    1.4277   -0.0000 N   0  0  0  0  0  0  0  0  0  0  0  0
    2.3362    3.8582   -0.0000 N   0  0  0  0  0  0  0  0  0  0  0  0
   -0.8141    6.5484   -0.0000 C   0  0  0  0  0  0  0  0  0  0  0  0
    3.7520    1.8996   -0.0000 C   0  0  0  0  0  0  0  0  0  0  0  0
    3.7520    3.4099   -0.0000 C   0  0  0  0  0  0  0  0  0  0  0  0
   -0.0708    7.8581   -0.0000 C   0  0  0  0  0  0  0  0  0  0  0  0
    5.0381    1.1563   -0.0000 C   0  0  0  0  0  0  0  0  0  0  0  0
    5.0381    4.1768   -0.0000 C   0  0  0  0  0  0  0  0  0  0  0  0
    1.4159    7.8699   -0.0000 N   0  0  0  0  0  0  0  0  0  0  0  0
   -0.8377    9.1677   -0.0000 C   0  0  0  0  0  0  0  0  0  0  0  0
    6.3242    1.9232   -0.0000 C   0  0  0  0  0  0  0  0  0  0  0  0
    6.3242    3.4335   -0.0000 C   0  0  0  0  0  0  0  0  0  0  0  0
    5.0263    5.6871   -0.0000 C   0  0  0  0  0  0  0  0  0  0  0  0
    2.1474    9.1795   -0.0000 C   0  0  0  0  0  0  0  0  0  0  0  0
   -0.0944   10.4774   -0.0000 C   0  0  0  0  0  0  0  0  0  0  0  0
    7.6103    1.1799   -0.0000 N   0  0  0  0  0  0  0  0  0  0  0  0
    1.3923   10.4892   -0.0000 C   0  0  0  0  0  0  0  0  0  0  0  0
    8.9672    1.8052   -0.0000 C   0  0  0  0  0  0  0  0  0  0  0  0
    7.7519   -0.2950   -0.0000 C   0  0  0  0  0  0  0  0  0  0  0  0
    9.9583    0.7079   -0.0000 N   0  0  0  0  0  0  0  0  0  0  0  0
    9.2031   -0.5899   -0.0000 C   0  0  0  0  0  0  0  0  0  0  0  0
  1  2  2  0
  2  3  1  0
  2  4  1  0
  3  5  1  0
  4  6  2  0
  4  7  1  0
  5  8  2  0
  6  9  1  0
  7 10  2  0
  7 11  1  0
  9 12  1  0
 10 13  1  0
 11 14  1  0
 12 15  1  0
 13 16  2  0
 14 17  2  0
 15 18  2  0
 15 19  1  0
 16 20  1  0
 17 21  1  0
 17 22  1  0
 18 23  1  0
 19 24  2  0
 20 25  1  0
 23 26  2  0
 25 27  1  0
 25 28  1  0
 27 29  2  0
 28 30  2  0
  6  8  1  0
 13 14  1  0
 20 21  2  0
 24 26  1  0
 29 30  1  0
M  END
>  <MolRegNo>  (1) 
383731

>  <m>  (1) 
=

>  <Value>  (1) 
5700

>  <Unit>  (1) 
nM

>  <Type>  (1) 
IC50

>  <pValue>  (1) 
5.24

>  <Ligand Efficiency>  (1) 
0

>  <Binding Efficiency>  (1) 
0

>  <Surface Efficiency>  (1) 
0

>  <Assay Index>  (1) 
287463

>  <Assay Category>  (1) 


>  <Assay Organism>  (1) 


>  <Target ID>  (1) 
11365

>  <Target Name>  (1) 
Cytochrome P450 2D6

>  <Target Organism>  (1) 
Homo sapiens

>  <Target Description>  (1) 
Target is a single protein chain

>  <Sequence Accession>  (1) 
P10635

>  <Reference>  (1) 
Bioorg Med Chem Lett 17 (11), 3072-3076 (2007)

>  <Pubmed ID>  (1) 
17398093

>  <DOI>  (1) 
10.1016/j.bmcl.2007.03.048

$$$$
