4wnv_ligand_174
     RDKit          2D

 18 18  0  0  0  0  0  0  0  0999 V2000
    0.0000   -0.0000   -0.0000 O   0  0  0  0  0  0  0  0  0  0  0  0
    1.4456    0.4503   -0.0000 N   0  0  0  0  0  0  0  0  0  0  0  0
    1.8011    1.9196   -0.0000 O   0  0  0  0  0  0  0  0  0  0  0  0
    2.5239   -0.5925   -0.0000 C   0  0  0  0  0  0  0  0  0  0  0  0
    2.3106   -2.0618   -0.0000 N   0  0  0  0  0  0  0  0  0  0  0  0
    3.9932   -0.3081   -0.0000 N   0  0  0  0  0  0  0  0  0  0  0  0
    3.6496   -2.7254   -0.0000 C   0  0  0  0  0  0  0  0  0  0  0  0
    4.6924   -1.6471   -0.0000 C   0  0  0  0  0  0  0  0  0  0  0  0
    5.2611    0.4740   -0.0000 C   0  0  0  0  0  0  0  0  0  0  0  0
    6.5764   -0.2488   -0.0000 C   0  0  0  0  0  0  0  0  0  0  0  0
    6.5883   -1.7419   -0.0000 O   0  0  0  0  0  0  0  0  0  0  0  0
    7.8443    0.5332   -0.0000 N   0  0  0  0  0  0  0  0  0  0  0  0
    9.1596   -0.1659   -0.0000 C   0  0  0  0  0  0  0  0  0  0  0  0
    7.8087    2.0499   -0.0000 C   0  0  0  0  0  0  0  0  0  0  0  0
   10.4275    0.6162   -0.0000 C   0  0  0  0  0  0  0  0  0  0  0  0
    9.0766    2.8320   -0.0000 C   0  0  0  0  0  0  0  0  0  0  0  0
   11.7546   -0.1066   -0.0000 O   0  0  0  0  0  0  0  0  0  0  0  0
    9.0292    4.3487   -0.0000 O   0  0  0  0  0  0  0  0  0  0  0  0
  1  2  2  0
  2  3  1  0
  2  4  1  0
  4  5  2  0
  4  6  1  0
  5  7  1  0
  6  8  1  0
  6  9  1  0
  9 10  1  0
 10 11  2  0
 10 12  1  0
 12 13  1  0
 12 14  1  0
 13 15  1  0
 14 16  1  0
 15 17  1  0
 16 18  1  0
  7  8  2  0
M  CHG  2   2   1   3  -1
M  END
>  <MolRegNo>  (1) 
314402

>  <m>  (1) 
=

>  <Value>  (1) 
1017000

>  <Unit>  (1) 
nM

>  <Type>  (1) 
IC50

>  <pValue>  (1) 
0

>  <Ligand Efficiency>  (1) 
0

>  <Binding Efficiency>  (1) 
0

>  <Surface Efficiency>  (1) 
0

>  <Assay Index>  (1) 
237541

>  <Assay Category>  (1) 


>  <Assay Organism>  (1) 


>  <Target ID>  (1) 
11365

>  <Target Name>  (1) 
Cytochrome P450 2D6

>  <Target Organism>  (1) 
Homo sapiens

>  <Target Description>  (1) 
Target is a single protein chain

>  <Sequence Accession>  (1) 
P10635

>  <Reference>  (1) 
J Med Chem 47 (22), 5340-5346 (2004)

>  <Pubmed ID>  (1) 
15481972

>  <DOI>  (1) 
10.1021/jm049934e

$$$$
