4wnv_ligand_807
     RDKit          2D

 29 32  0  0  0  0  0  0  0  0999 V2000
    0.0000   -0.0000   -0.0000 F   0  0  0  0  0  0  0  0  0  0  0  0
   -1.0527    1.0871   -0.0000 C   0  0  0  0  0  0  0  0  0  0  0  0
   -2.5174    0.7438   -0.0000 C   0  0  0  0  0  0  0  0  0  0  0  0
   -0.6522    2.5403   -0.0000 C   0  0  0  0  0  0  0  0  0  0  0  0
   -2.9408   -0.6866   -0.0000 C   0  0  0  0  0  0  0  0  0  0  0  0
   -3.5702    1.8309   -0.0000 C   0  0  0  0  0  0  0  0  0  0  0  0
   -1.7050    3.6274   -0.0000 C   0  0  0  0  0  0  0  0  0  0  0  0
   -4.4055   -1.0299   -0.0000 O   0  0  0  0  0  0  0  0  0  0  0  0
   -1.9110   -1.7508   -0.0000 N   0  0  0  0  0  0  0  0  0  0  0  0
   -3.1697    3.2841   -0.0000 C   0  0  0  0  0  0  0  0  0  0  0  0
   -1.3045    5.0806   -0.0000 C   0  0  0  0  0  0  0  0  0  0  0  0
   -2.3343   -3.1811   -0.0000 C   0  0  0  0  0  0  0  0  0  0  0  0
   -0.4692   -1.3846   -0.0000 C   0  0  0  0  0  0  0  0  0  0  0  0
   -2.3572    6.1677   -0.0000 C   0  0  0  0  0  0  0  0  0  0  0  0
    0.1373    5.4468   -0.0000 C   0  0  0  0  0  0  0  0  0  0  0  0
   -1.3045   -4.2453   -0.0000 C   0  0  0  0  0  0  0  0  0  0  0  0
    0.5607   -2.4488   -0.0000 C   0  0  0  0  0  0  0  0  0  0  0  0
   -1.9567    7.6209   -0.0000 C   0  0  0  0  0  0  0  0  0  0  0  0
   -3.8219    5.8244   -0.0000 C   0  0  0  0  0  0  0  0  0  0  0  0
    0.5378    6.9000   -0.0000 C   0  0  0  0  0  0  0  0  0  0  0  0
   -0.5149    7.9871   -0.0000 O   0  0  0  0  0  0  0  0  0  0  0  0
   -3.0095    8.7080   -0.0000 C   0  0  0  0  0  0  0  0  0  0  0  0
   -4.8747    6.9115   -0.0000 C   0  0  0  0  0  0  0  0  0  0  0  0
    0.9383    8.3533   -0.0000 C   0  0  0  0  0  0  0  0  0  0  0  0
    1.5677    5.8359   -0.0000 C   0  0  0  0  0  0  0  0  0  0  0  0
   -4.4742    8.3647   -0.0000 C   0  0  0  0  0  0  0  0  0  0  0  0
    2.3801    8.7195   -0.0000 C   0  0  0  0  0  0  0  0  0  0  0  0
    3.0095    6.2020   -0.0000 C   0  0  0  0  0  0  0  0  0  0  0  0
    3.4100    7.6553   -0.0000 N   0  0  0  0  0  0  0  0  0  0  0  0
  1  2  1  0
  2  3  2  0
  2  4  1  0
  3  5  1  0
  3  6  1  0
  4  7  2  0
  5  8  2  0
  5  9  1  0
  6 10  2  0
  7 11  1  0
  9 12  1  0
  9 13  1  0
 11 14  1  0
 11 15  2  0
 12 16  1  0
 13 17  1  0
 14 18  2  0
 14 19  1  0
 15 20  1  0
 18 21  1  0
 18 22  1  0
 19 23  2  0
 20 24  1  0
 20 25  1  0
 22 26  2  0
 24 27  1  0
 25 28  1  0
 27 29  1  0
  7 10  1  0
 20 21  1  0
 23 26  1  0
 28 29  1  0
M  END
>  <MolRegNo>  (1) 
562731

>  <m>  (1) 
=

>  <Value>  (1) 
5300

>  <Unit>  (1) 
nM

>  <Type>  (1) 
IC50

>  <pValue>  (1) 
5.28

>  <Ligand Efficiency>  (1) 
0

>  <Binding Efficiency>  (1) 
0

>  <Surface Efficiency>  (1) 
0

>  <Assay Index>  (1) 
428577

>  <Assay Category>  (1) 


>  <Assay Organism>  (1) 
Homo sapiens

>  <Target ID>  (1) 
11365

>  <Target Name>  (1) 
Cytochrome P450 2D6

>  <Target Organism>  (1) 
Homo sapiens

>  <Target Description>  (1) 
Target is a single protein chain

>  <Sequence Accession>  (1) 
P10635

>  <Reference>  (1) 
J Med Chem 52 (18), 5685-5702 (2009)

>  <Pubmed ID>  (1) 
19694468

>  <DOI>  (1) 
10.1021/jm900773n

$$$$
