4wnv_ligand_153
     RDKit          2D

 18 19  0  0  0  0  0  0  0  0999 V2000
    0.0000   -0.0000   -0.0000 Cl  0  0  0  0  0  0  0  0  0  0  0  0
   -0.0120   -1.4742   -0.0000 C   0  0  0  0  0  0  0  0  0  0  0  0
    1.2824   -2.2173   -0.0000 C   0  0  0  0  0  0  0  0  0  0  0  0
   -1.3304   -2.2173   -0.0000 C   0  0  0  0  0  0  0  0  0  0  0  0
    1.2705   -3.7275   -0.0000 C   0  0  0  0  0  0  0  0  0  0  0  0
   -1.3424   -3.7275   -0.0000 C   0  0  0  0  0  0  0  0  0  0  0  0
    2.5529   -4.4706   -0.0000 N   0  0  0  0  0  0  0  0  0  0  0  0
   -0.0479   -4.4706   -0.0000 C   0  0  0  0  0  0  0  0  0  0  0  0
    2.5529   -5.9448   -0.0000 C   0  0  0  0  0  0  0  0  0  0  0  0
   -0.0599   -5.9567   -0.0000 C   0  0  0  0  0  0  0  0  0  0  0  0
    1.2225   -6.6878   -0.0000 C   0  0  0  0  0  0  0  0  0  0  0  0
   -1.3783   -6.6878   -0.0000 N   0  0  0  0  0  0  0  0  0  0  0  0
    1.2105   -8.1860   -0.0000 C   0  0  0  0  0  0  0  0  0  0  0  0
   -2.6727   -5.9208   -0.0000 C   0  0  0  0  0  0  0  0  0  0  0  0
    2.5049   -8.9291   -0.0000 N   0  0  0  0  0  0  0  0  0  0  0  0
   -3.9911   -6.6639   -0.0000 C   0  0  0  0  0  0  0  0  0  0  0  0
   -5.2975   -5.8848   -0.0000 C   0  0  0  0  0  0  0  0  0  0  0  0
   -6.6159   -6.6279   -0.0000 C   0  0  0  0  0  0  0  0  0  0  0  0
  1  2  1  0
  2  3  2  0
  2  4  1  0
  3  5  1  0
  4  6  2  0
  5  7  2  0
  5  8  1  0
  7  9  1  0
  8 10  2  0
  9 11  2  0
 10 12  1  0
 11 13  1  0
 12 14  1  0
 13 15  1  0
 14 16  1  0
 16 17  1  0
 17 18  1  0
  6  8  1  0
 10 11  1  0
M  END
>  <MolRegNo>  (1) 
314335

>  <m>  (1) 
=

>  <Value>  (1) 
2200

>  <Unit>  (1) 
nM

>  <Type>  (1) 
IC50

>  <pValue>  (1) 
5.66

>  <Ligand Efficiency>  (1) 
0

>  <Binding Efficiency>  (1) 
0

>  <Surface Efficiency>  (1) 
0

>  <Assay Index>  (1) 
237541

>  <Assay Category>  (1) 


>  <Assay Organism>  (1) 


>  <Target ID>  (1) 
11365

>  <Target Name>  (1) 
Cytochrome P450 2D6

>  <Target Organism>  (1) 
Homo sapiens

>  <Target Description>  (1) 
Target is a single protein chain

>  <Sequence Accession>  (1) 
P10635

>  <Reference>  (1) 
J Med Chem 47 (22), 5340-5346 (2004)

>  <Pubmed ID>  (1) 
15481972

>  <DOI>  (1) 
10.1021/jm049934e

$$$$
