4wnv_ligand_90
     RDKit          2D

 13 14  0  0  0  0  0  0  0  0999 V2000
    0.0000   -0.0000   -0.0000 S   0  0  0  0  0  0  0  0  0  0  0  0
    1.5359    0.3496   -0.0000 C   0  0  0  0  0  0  0  0  0  0  0  0
   -0.1623   -1.5609   -0.0000 C   0  0  0  0  0  0  0  0  0  0  0  0
    2.1603    1.8231   -0.0000 N   0  0  0  0  0  0  0  0  0  0  0  0
    2.3226   -1.0115   -0.0000 C   0  0  0  0  0  0  0  0  0  0  0  0
   -1.5484   -2.3601   -0.0000 C   0  0  0  0  0  0  0  0  0  0  0  0
    1.2612   -2.1978   -0.0000 C   0  0  0  0  0  0  0  0  0  0  0  0
    1.7857    1.8481   -0.0000 C   0  0  0  0  0  0  0  0  0  0  0  0
   -1.5609   -3.9335   -0.0000 C   0  0  0  0  0  0  0  0  0  0  0  0
   -2.9470   -1.5609   -0.0000 C   0  0  0  0  0  0  0  0  0  0  0  0
   -2.9595   -4.7202   -0.0000 N   0  0  0  0  0  0  0  0  0  0  0  0
   -4.3331   -2.3351   -0.0000 C   0  0  0  0  0  0  0  0  0  0  0  0
   -4.3456   -3.9085   -0.0000 C   0  0  0  0  0  0  0  0  0  0  0  0
  1  2  1  0
  1  3  1  0
  2  4  1  0
  2  5  2  0
  3  6  1  0
  3  7  2  0
  4  8  1  0
  6  9  2  0
  6 10  1  0
  9 11  1  0
 10 12  2  0
 11 13  2  0
  5  7  1  0
 12 13  1  0
M  END
>  <MolRegNo>  (1) 
299725

>  <m>  (1) 
=

>  <Value>  (1) 
14400

>  <Unit>  (1) 
nM

>  <Type>  (1) 
IC50

>  <pValue>  (1) 
4.84

>  <Ligand Efficiency>  (1) 
0

>  <Binding Efficiency>  (1) 
0

>  <Surface Efficiency>  (1) 
0

>  <Assay Index>  (1) 
238570

>  <Assay Category>  (1) 


>  <Assay Organism>  (1) 
Homo sapiens

>  <Target ID>  (1) 
11365

>  <Target Name>  (1) 
Cytochrome P450 2D6

>  <Target Organism>  (1) 
Homo sapiens

>  <Target Description>  (1) 
Target is a single protein chain

>  <Sequence Accession>  (1) 
P10635

>  <Reference>  (1) 
J Med Chem 48 (1), 224-239 (2005)

>  <Pubmed ID>  (1) 
15634016

>  <DOI>  (1) 
10.1021/jm049696n

$$$$
