4wnv_ligand_565
     RDKit          2D

 21 23  0  0  0  0  0  0  0  0999 V2000
    0.0000   -0.0000   -0.0000 Cl  0  0  0  0  0  0  0  0  0  0  0  0
    1.2967   -0.7376   -0.0000 C   0  0  0  0  0  0  0  0  0  0  0  0
    1.2967   -2.2246   -0.0000 C   0  0  0  0  0  0  0  0  0  0  0  0
    2.5815    0.0238   -0.0000 C   0  0  0  0  0  0  0  0  0  0  0  0
   -0.0238   -2.9622   -0.0000 O   0  0  0  0  0  0  0  0  0  0  0  0
    2.5815   -2.9741   -0.0000 C   0  0  0  0  0  0  0  0  0  0  0  0
    3.8782   -0.7138   -0.0000 C   0  0  0  0  0  0  0  0  0  0  0  0
   -0.0357   -4.4493   -0.0000 C   0  0  0  0  0  0  0  0  0  0  0  0
    3.8663   -2.2127   -0.0000 C   0  0  0  0  0  0  0  0  0  0  0  0
   -1.3443   -5.1987   -0.0000 C   0  0  0  0  0  0  0  0  0  0  0  0
    1.2610   -5.1987   -0.0000 C   0  0  0  0  0  0  0  0  0  0  0  0
   -1.3562   -6.6977   -0.0000 C   0  0  0  0  0  0  0  0  0  0  0  0
   -2.6648   -4.4374   -0.0000 C   0  0  0  0  0  0  0  0  0  0  0  0
    1.2491   -6.6977   -0.0000 C   0  0  0  0  0  0  0  0  0  0  0  0
    2.5577   -4.4374   -0.0000 C   0  0  0  0  0  0  0  0  0  0  0  0
   -0.0714   -7.4353   -0.0000 O   0  0  0  0  0  0  0  0  0  0  0  0
   -2.6648   -7.4472   -0.0000 C   0  0  0  0  0  0  0  0  0  0  0  0
   -3.9734   -5.1750   -0.0000 C   0  0  0  0  0  0  0  0  0  0  0  0
    3.8426   -5.1750   -0.0000 N   0  0  0  0  0  0  0  0  0  0  0  0
   -3.9853   -6.6858   -0.0000 C   0  0  0  0  0  0  0  0  0  0  0  0
    5.1393   -4.4136   -0.0000 C   0  0  0  0  0  0  0  0  0  0  0  0
  1  2  1  0
  2  3  2  0
  2  4  1  0
  3  5  1  0
  3  6  1  0
  4  7  2  0
  8  5  1  1
  6  9  2  0
  8 10  1  0
  8 11  1  0
 10 12  2  0
 10 13  1  0
 11 14  1  0
 11 15  1  1
 12 16  1  0
 12 17  1  0
 13 18  2  0
 15 19  1  0
 17 20  2  0
 19 21  1  0
  7  9  1  0
 14 16  1  0
 18 20  1  0
M  END
>  <MolRegNo>  (1) 
511423

>  <m>  (1) 
=

>  <Value>  (1) 
200

>  <Unit>  (1) 
nM

>  <Type>  (1) 
IC50

>  <pValue>  (1) 
6.7

>  <Ligand Efficiency>  (1) 
0

>  <Binding Efficiency>  (1) 
0

>  <Surface Efficiency>  (1) 
0

>  <Assay Index>  (1) 
358939

>  <Assay Category>  (1) 


>  <Assay Organism>  (1) 


>  <Target ID>  (1) 
11365

>  <Target Name>  (1) 
Cytochrome P450 2D6

>  <Target Organism>  (1) 
Homo sapiens

>  <Target Description>  (1) 
Target is a single protein chain

>  <Sequence Accession>  (1) 
P10635

>  <Reference>  (1) 
Bioorg Med Chem Lett 18 (16), 4491-4494 (2008)

>  <Pubmed ID>  (1) 
18672364

>  <DOI>  (1) 
10.1016/j.bmcl.2008.07.049

$$$$
