4wnv_ligand_627
     RDKit          2D

 22 25  0  0  0  0  0  0  0  0999 V2000
    0.0000   -0.0000   -0.0000 N   0  0  0  0  0  0  0  0  0  0  0  0
   -1.4415    0.4726   -0.0000 C   0  0  0  0  0  0  0  0  0  0  0  0
    0.8744    1.2288   -0.0000 C   0  0  0  0  0  0  0  0  0  0  0  0
    0.4490   -1.4060   -0.0000 C   0  0  0  0  0  0  0  0  0  0  0  0
   -1.4533    1.9850   -0.0000 C   0  0  0  0  0  0  0  0  0  0  0  0
   -2.7412   -0.2599   -0.0000 C   0  0  0  0  0  0  0  0  0  0  0  0
   -0.0236    2.4576   -0.0000 C   0  0  0  0  0  0  0  0  0  0  0  0
   -2.7530    2.7530   -0.0000 C   0  0  0  0  0  0  0  0  0  0  0  0
   -4.0409    0.4963   -0.0000 C   0  0  0  0  0  0  0  0  0  0  0  0
   -4.0527    2.0086   -0.0000 C   0  0  0  0  0  0  0  0  0  0  0  0
   -5.3524    2.7648   -0.0000 C   0  0  0  0  0  0  0  0  0  0  0  0
   -6.7230    2.1741   -0.0000 C   0  0  0  0  0  0  0  0  0  0  0  0
   -5.5179    4.2536   -0.0000 C   0  0  0  0  0  0  0  0  0  0  0  0
   -4.0764    3.5328   -0.0000 C   0  0  0  0  0  0  0  0  0  0  0  0
   -7.7274    3.2965   -0.0000 N   0  0  0  0  0  0  0  0  0  0  0  0
   -6.9830    4.5726   -0.0000 C   0  0  0  0  0  0  0  0  0  0  0  0
   -4.1000    5.0334   -0.0000 C   0  0  0  0  0  0  0  0  0  0  0  0
   -2.8239    5.8014   -0.0000 C   0  0  0  0  0  0  0  0  0  0  0  0
   -5.3997    5.7778   -0.0000 C   0  0  0  0  0  0  0  0  0  0  0  0
   -2.8475    7.3020   -0.0000 C   0  0  0  0  0  0  0  0  0  0  0  0
   -5.4233    7.2784   -0.0000 C   0  0  0  0  0  0  0  0  0  0  0  0
   -4.1591    8.0464   -0.0000 C   0  0  0  0  0  0  0  0  0  0  0  0
  1  2  1  0
  1  3  1  0
  1  4  1  0
  2  5  2  0
  2  6  1  0
  3  7  2  0
  5  8  1  0
  6  9  2  0
  8 10  2  0
 10 11  1  0
 11 12  1  0
 11 13  1  0
 11 14  1  0
 12 15  1  0
 13 16  1  0
 14 17  1  0
 17 18  2  0
 17 19  1  0
 18 20  1  0
 19 21  2  0
 20 22  2  0
  5  7  1  0
  9 10  1  0
 15 16  1  0
 21 22  1  0
M  END
>  <MolRegNo>  (1) 
515244

>  <m>  (1) 
=

>  <Value>  (1) 
100

>  <Unit>  (1) 
nM

>  <Type>  (1) 
IC50

>  <pValue>  (1) 
7

>  <Ligand Efficiency>  (1) 
0

>  <Binding Efficiency>  (1) 
0

>  <Surface Efficiency>  (1) 
0

>  <Assay Index>  (1) 
342264

>  <Assay Category>  (1) 


>  <Assay Organism>  (1) 


>  <Target ID>  (1) 
11365

>  <Target Name>  (1) 
Cytochrome P450 2D6

>  <Target Organism>  (1) 
Homo sapiens

>  <Target Description>  (1) 
Target is a single protein chain

>  <Sequence Accession>  (1) 
P10635

>  <Reference>  (1) 
Bioorg Med Chem Lett 18 (23), 6062-6066 (2008)

>  <Pubmed ID>  (1) 
18954985

>  <DOI>  (1) 
10.1016/j.bmcl.2008.10.025

$$$$
