4wnv_ligand_15
     RDKit          2D

 47 51  0  0  0  0  0  0  0  0999 V2000
    0.0000   -0.0000   -0.0000 S   0  0  0  0  0  0  0  0  0  0  0  0
   -0.0118    1.5140   -0.0000 C   0  0  0  0  0  0  0  0  0  0  0  0
   -1.3129   -0.7452   -0.0000 C   0  0  0  0  0  0  0  0  0  0  0  0
   -1.3248    2.2710   -0.0000 N   0  0  0  0  0  0  0  0  0  0  0  0
    1.2775    2.2710   -0.0000 N   0  0  0  0  0  0  0  0  0  0  0  0
   -2.6259    0.0118   -0.0000 C   0  0  0  0  0  0  0  0  0  0  0  0
   -1.3366    3.7851   -0.0000 C   0  0  0  0  0  0  0  0  0  0  0  0
    1.2656    3.7851   -0.0000 C   0  0  0  0  0  0  0  0  0  0  0  0
    2.5668    1.5377   -0.0000 C   0  0  0  0  0  0  0  0  0  0  0  0
   -3.9388   -0.7334   -0.0000 C   0  0  0  0  0  0  0  0  0  0  0  0
   -2.6377    1.5259   -0.0000 C   0  0  0  0  0  0  0  0  0  0  0  0
   -2.6496    4.5421   -0.0000 O   0  0  0  0  0  0  0  0  0  0  0  0
   -0.0473    4.5421   -0.0000 C   0  0  0  0  0  0  0  0  0  0  0  0
    2.3657    4.8023   -0.0000 C   0  0  0  0  0  0  0  0  0  0  0  0
    3.8560    2.2947   -0.0000 C   0  0  0  0  0  0  0  0  0  0  0  0
   -5.2518    0.0237   -0.0000 C   0  0  0  0  0  0  0  0  0  0  0  0
   -3.9507    2.2829   -0.0000 C   0  0  0  0  0  0  0  0  0  0  0  0
    0.2484    6.0206   -0.0000 C   0  0  0  0  0  0  0  0  0  0  0  0
    1.7388    6.1862   -0.0000 C   0  0  0  0  0  0  0  0  0  0  0  0
    3.8442    3.8087   -0.0000 O   0  0  0  0  0  0  0  0  0  0  0  0
    5.1453    1.5613   -0.0000 N   0  0  0  0  0  0  0  0  0  0  0  0
   -5.2636    1.5377   -0.0000 C   0  0  0  0  0  0  0  0  0  0  0  0
    6.4346    2.3184   -0.0000 C   0  0  0  0  0  0  0  0  0  0  0  0
    5.1335    0.0710   -0.0000 C   0  0  0  0  0  0  0  0  0  0  0  0
   -6.5766    2.2947   -0.0000 F   0  0  0  0  0  0  0  0  0  0  0  0
    7.7239    1.5850   -0.0000 C   0  0  0  0  0  0  0  0  0  0  0  0
    3.8206   -0.6742   -0.0000 C   0  0  0  0  0  0  0  0  0  0  0  0
    7.7121    0.0946   -0.0000 C   0  0  0  0  0  0  0  0  0  0  0  0
    9.0132    2.3420   -0.0000 C   0  0  0  0  0  0  0  0  0  0  0  0
    3.8087   -2.1646   -0.0000 N   0  0  0  0  0  0  0  0  0  0  0  0
    9.0014   -0.6506   -0.0000 C   0  0  0  0  0  0  0  0  0  0  0  0
   10.3025    1.6087   -0.0000 C   0  0  0  0  0  0  0  0  0  0  0  0
    5.0980   -2.8980   -0.0000 C   0  0  0  0  0  0  0  0  0  0  0  0
    2.4958   -2.8980   -0.0000 C   0  0  0  0  0  0  0  0  0  0  0  0
   10.2907    0.1065   -0.0000 C   0  0  0  0  0  0  0  0  0  0  0  0
    6.3873   -2.1409   -0.0000 C   0  0  0  0  0  0  0  0  0  0  0  0
    1.1828   -2.1409   -0.0000 C   0  0  0  0  0  0  0  0  0  0  0  0
   11.5800   -0.6387   -0.0000 C   0  0  0  0  0  0  0  0  0  0  0  0
   11.5681   -2.1291   -0.0000 C   0  0  0  0  0  0  0  0  0  0  0  0
   12.8693    0.1183   -0.0000 C   0  0  0  0  0  0  0  0  0  0  0  0
   12.8574   -2.8625   -0.0000 C   0  0  0  0  0  0  0  0  0  0  0  0
   14.1586   -0.6269   -0.0000 C   0  0  0  0  0  0  0  0  0  0  0  0
   14.1467   -2.1054   -0.0000 C   0  0  0  0  0  0  0  0  0  0  0  0
   15.4360   -2.8388   -0.0000 C   0  0  0  0  0  0  0  0  0  0  0  0
   16.7253   -2.0818   -0.0000 F   0  0  0  0  0  0  0  0  0  0  0  0
   15.4242   -4.3292   -0.0000 F   0  0  0  0  0  0  0  0  0  0  0  0
   16.7253   -3.5840   -0.0000 F   0  0  0  0  0  0  0  0  0  0  0  0
  1  2  1  0
  1  3  1  0
  2  4  2  0
  2  5  1  0
  3  6  1  0
  4  7  1  0
  5  8  1  0
  5  9  1  0
  6 10  2  0
  6 11  1  0
  7 12  2  0
  7 13  1  0
  8 14  1  0
  9 15  1  0
 10 16  1  0
 11 17  2  0
 13 18  1  0
 14 19  1  0
 15 20  2  0
 15 21  1  0
 16 22  2  0
 21 23  1  0
 21 24  1  0
 22 25  1  0
 23 26  1  0
 24 27  1  0
 26 28  2  0
 26 29  1  0
 27 30  1  0
 28 31  1  0
 29 32  2  0
 30 33  1  0
 30 34  1  0
 31 35  2  0
 33 36  1  0
 34 37  1  0
 35 38  1  0
 38 39  2  0
 38 40  1  0
 39 41  1  0
 40 42  2  0
 41 43  2  0
 43 44  1  0
 44 45  1  0
 44 46  1  0
 44 47  1  0
  8 13  2  0
 17 22  1  0
 18 19  1  0
 32 35  1  0
 42 43  1  0
M  END
>  <MolRegNo>  (1) 
154

>  <m>  (1) 
=

>  <Value>  (1) 
26000

>  <Unit>  (1) 
nM

>  <Type>  (1) 
IC50

>  <pValue>  (1) 
4.58

>  <Ligand Efficiency>  (1) 
0

>  <Binding Efficiency>  (1) 
0

>  <Surface Efficiency>  (1) 
0

>  <Assay Index>  (1) 
51652

>  <Assay Category>  (1) 


>  <Assay Organism>  (1) 


>  <Target ID>  (1) 
11365

>  <Target Name>  (1) 
Cytochrome P450 2D6

>  <Target Organism>  (1) 
Homo sapiens

>  <Target Description>  (1) 
Target is a single protein chain

>  <Sequence Accession>  (1) 
P10635

>  <Reference>  (1) 
Bioorg Med Chem Lett 13 (6), 1067-1070 (2003)

>  <Pubmed ID>  (1) 
12643913

>  <DOI>  (1) 
10.1016/s0960-894x(03)00058-1

$$$$
