4wnv_ligand_248
     RDKit          2D

 31 34  0  0  0  0  0  0  0  0999 V2000
    0.0000   -0.0000   -0.0000 O   0  0  0  0  0  0  0  0  0  0  0  0
    0.0000   -1.4899   -0.0000 C   0  0  0  0  0  0  0  0  0  0  0  0
    1.2889   -2.2112   -0.0000 N   0  0  0  0  0  0  0  0  0  0  0  0
   -1.3007   -2.2467   -0.0000 C   0  0  0  0  0  0  0  0  0  0  0  0
    2.5778   -1.4545   -0.0000 C   0  0  0  0  0  0  0  0  0  0  0  0
    1.2534   -3.7012   -0.0000 C   0  0  0  0  0  0  0  0  0  0  0  0
   -1.3007   -3.7367   -0.0000 C   0  0  0  0  0  0  0  0  0  0  0  0
   -2.6251   -1.5018   -0.0000 C   0  0  0  0  0  0  0  0  0  0  0  0
    3.8549   -2.1994   -0.0000 C   0  0  0  0  0  0  0  0  0  0  0  0
    2.5423   -4.4461   -0.0000 C   0  0  0  0  0  0  0  0  0  0  0  0
   -2.6015   -4.4816   -0.0000 C   0  0  0  0  0  0  0  0  0  0  0  0
   -3.9259   -2.2585   -0.0000 C   0  0  0  0  0  0  0  0  0  0  0  0
    3.8313   -3.6894   -0.0000 N   0  0  0  0  0  0  0  0  0  0  0  0
   -3.9140   -3.7248   -0.0000 C   0  0  0  0  0  0  0  0  0  0  0  0
   -5.2148   -4.4698   -0.0000 O   0  0  0  0  0  0  0  0  0  0  0  0
   -6.5273   -3.7248   -0.0000 C   0  0  0  0  0  0  0  0  0  0  0  0
   -7.8281   -4.4698   -0.0000 C   0  0  0  0  0  0  0  0  0  0  0  0
   -9.1406   -3.7012   -0.0000 C   0  0  0  0  0  0  0  0  0  0  0  0
   -9.1524   -2.1876   -0.0000 O   0  0  0  0  0  0  0  0  0  0  0  0
  -10.4532   -4.4343   -0.0000 N   0  0  0  0  0  0  0  0  0  0  0  0
  -10.4650   -5.9243   -0.0000 C   0  0  0  0  0  0  0  0  0  0  0  0
  -11.7539   -3.6775   -0.0000 C   0  0  0  0  0  0  0  0  0  0  0  0
  -11.7657   -6.6574   -0.0000 C   0  0  0  0  0  0  0  0  0  0  0  0
  -13.0665   -4.4107   -0.0000 C   0  0  0  0  0  0  0  0  0  0  0  0
  -13.0783   -5.9006   -0.0000 C   0  0  0  0  0  0  0  0  0  0  0  0
  -14.3908   -6.6337   -0.0000 C   0  0  0  0  0  0  0  0  0  0  0  0
  -15.6916   -5.8770   -0.0000 C   0  0  0  0  0  0  0  0  0  0  0  0
  -17.0751   -6.4800   -0.0000 N   0  0  0  0  0  0  0  0  0  0  0  0
  -15.8690   -4.3752   -0.0000 C   0  0  0  0  0  0  0  0  0  0  0  0
  -18.0920   -5.3448   -0.0000 C   0  0  0  0  0  0  0  0  0  0  0  0
  -17.3471   -4.0559   -0.0000 N   0  0  0  0  0  0  0  0  0  0  0  0
  1  2  2  0
  2  3  1  0
  2  4  1  0
  3  5  1  0
  3  6  1  0
  4  7  2  0
  4  8  1  0
  5  9  1  0
  6 10  1  0
  7 11  1  0
  8 12  2  0
  9 13  1  0
 11 14  2  0
 14 15  1  0
 15 16  1  0
 16 17  1  0
 17 18  1  0
 18 19  2  0
 18 20  1  0
 20 21  1  0
 20 22  1  0
 21 23  1  0
 22 24  1  0
 23 25  1  0
 25 26  1  0
 26 27  1  0
 27 28  1  0
 27 29  2  0
 28 30  2  0
 29 31  1  0
 10 13  1  0
 12 14  1  0
 24 25  1  0
 30 31  1  0
M  END
>  <MolRegNo>  (1) 
339514

>  <m>  (1) 
=

>  <Value>  (1) 
30000

>  <Unit>  (1) 
nM

>  <Type>  (1) 
IC50

>  <pValue>  (1) 
4.52

>  <Ligand Efficiency>  (1) 
0

>  <Binding Efficiency>  (1) 
0

>  <Surface Efficiency>  (1) 
0

>  <Assay Index>  (1) 
257619

>  <Assay Category>  (1) 


>  <Assay Organism>  (1) 
Homo sapiens

>  <Target ID>  (1) 
11365

>  <Target Name>  (1) 
Cytochrome P450 2D6

>  <Target Organism>  (1) 
Homo sapiens

>  <Target Description>  (1) 
Target is a single protein chain

>  <Sequence Accession>  (1) 
P10635

>  <Reference>  (1) 
Bioorg Med Chem Lett 16 (4), 989-994 (2006)

>  <Pubmed ID>  (1) 
16297617

>  <DOI>  (1) 
10.1016/j.bmcl.2005.10.087

$$$$
