4wnv_ligand_532
     RDKit          2D

 24 27  0  0  0  0  0  0  0  0999 V2000
    0.0000   -0.0000   -0.0000 Cl  0  0  0  0  0  0  0  0  0  0  0  0
   -1.4889    0.2718   -0.0000 C   0  0  0  0  0  0  0  0  0  0  0  0
   -2.4698   -0.8626   -0.0000 C   0  0  0  0  0  0  0  0  0  0  0  0
   -2.0089    1.6898   -0.0000 C   0  0  0  0  0  0  0  0  0  0  0  0
   -3.9587   -0.5909   -0.0000 C   0  0  0  0  0  0  0  0  0  0  0  0
   -3.4978    1.9616   -0.0000 C   0  0  0  0  0  0  0  0  0  0  0  0
   -4.4787    0.8272   -0.0000 C   0  0  0  0  0  0  0  0  0  0  0  0
   -5.9676    1.0990   -0.0000 C   0  0  0  0  0  0  0  0  0  0  0  0
   -6.9484   -0.0355   -0.0000 C   0  0  0  0  0  0  0  0  0  0  0  0
   -7.9292    1.1226   -0.0000 N   0  0  0  0  0  0  0  0  0  0  0  0
   -5.6604   -0.7681   -0.0000 C   0  0  0  0  0  0  0  0  0  0  0  0
   -8.2601   -0.7681   -0.0000 C   0  0  0  0  0  0  0  0  0  0  0  0
   -5.6722   -2.2571   -0.0000 C   0  0  0  0  0  0  0  0  0  0  0  0
   -8.2719   -2.2571   -0.0000 C   0  0  0  0  0  0  0  0  0  0  0  0
   -6.9839   -2.9897   -0.0000 N   0  0  0  0  0  0  0  0  0  0  0  0
   -6.9957   -4.4787   -0.0000 C   0  0  0  0  0  0  0  0  0  0  0  0
   -5.7076   -5.2113   -0.0000 N   0  0  0  0  0  0  0  0  0  0  0  0
   -8.3074   -5.2113   -0.0000 C   0  0  0  0  0  0  0  0  0  0  0  0
   -5.7194   -6.7003   -0.0000 C   0  0  0  0  0  0  0  0  0  0  0  0
   -8.3192   -6.7003   -0.0000 C   0  0  0  0  0  0  0  0  0  0  0  0
   -9.7491   -4.7386   -0.0000 C   0  0  0  0  0  0  0  0  0  0  0  0
   -7.0311   -7.4329   -0.0000 N   0  0  0  0  0  0  0  0  0  0  0  0
   -9.7609   -7.1493   -0.0000 N   0  0  0  0  0  0  0  0  0  0  0  0
  -10.6471   -5.9440   -0.0000 C   0  0  0  0  0  0  0  0  0  0  0  0
  1  2  1  0
  2  3  2  0
  2  4  1  0
  3  5  1  0
  4  6  2  0
  5  7  2  0
  7  8  1  0
  8  9  1  0
  9 10  1  0
  9 11  1  0
  9 12  1  0
 11 13  1  0
 12 14  1  0
 13 15  1  0
 15 16  1  0
 16 17  2  0
 16 18  1  0
 17 19  1  0
 18 20  2  0
 18 21  1  0
 19 22  2  0
 20 23  1  0
 21 24  2  0
  6  7  1  0
 14 15  1  0
 20 22  1  0
 23 24  1  0
M  END
>  <MolRegNo>  (1) 
429079

>  <m>  (1) 
=

>  <Value>  (1) 
1000

>  <Unit>  (1) 
nM

>  <Type>  (1) 
IC50

>  <pValue>  (1) 
6

>  <Ligand Efficiency>  (1) 
0

>  <Binding Efficiency>  (1) 
0

>  <Surface Efficiency>  (1) 
0

>  <Assay Index>  (1) 
323987

>  <Assay Category>  (1) 


>  <Assay Organism>  (1) 


>  <Target ID>  (1) 
11365

>  <Target Name>  (1) 
Cytochrome P450 2D6

>  <Target Organism>  (1) 
Homo sapiens

>  <Target Description>  (1) 
Target is a single protein chain

>  <Sequence Accession>  (1) 
P10635

>  <Reference>  (1) 
J Med Chem 51 (7), 2147-2157 (2008)

>  <Pubmed ID>  (1) 
18345609

>  <DOI>  (1) 
10.1021/jm701437d

$$$$
