4wnv_ligand_705
     RDKit          2D

 31 33  0  0  0  0  0  0  0  0999 V2000
    0.0000   -0.0000   -0.0000 Cl  0  0  0  0  0  0  0  0  0  0  0  0
   14.8968    6.1479   -0.0000 S   0  0  0  0  0  0  0  0  0  0  0  0
   15.6357    4.8621   -0.0000 O   0  0  0  0  0  0  0  0  0  0  0  0
   14.1283    7.4632   -0.0000 O   0  0  0  0  0  0  0  0  0  0  0  0
   16.1825    6.9164   -0.0000 N   0  0  0  0  0  0  0  0  0  0  0  0
   13.5815    5.4089   -0.0000 C   0  0  0  0  0  0  0  0  0  0  0  0
   13.5667    3.9311   -0.0000 C   0  0  0  0  0  0  0  0  0  0  0  0
   12.2662    6.1774   -0.0000 C   0  0  0  0  0  0  0  0  0  0  0  0
   12.2514    3.1922   -0.0000 C   0  0  0  0  0  0  0  0  0  0  0  0
   10.9509    5.4385   -0.0000 C   0  0  0  0  0  0  0  0  0  0  0  0
   12.2366    1.7143   -0.0000 N   0  0  0  0  0  0  0  0  0  0  0  0
   10.9361    3.9606   -0.0000 C   0  0  0  0  0  0  0  0  0  0  0  0
   10.9213    0.9754   -0.0000 C   0  0  0  0  0  0  0  0  0  0  0  0
   10.9066   -0.5025   -0.0000 N   0  0  0  0  0  0  0  0  0  0  0  0
    9.6061    1.7439   -0.0000 N   0  0  0  0  0  0  0  0  0  0  0  0
    9.5913   -1.2414   -0.0000 C   0  0  0  0  0  0  0  0  0  0  0  0
    8.2908    1.0049   -0.0000 C   0  0  0  0  0  0  0  0  0  0  0  0
    9.5765   -2.7193   -0.0000 N   0  0  0  0  0  0  0  0  0  0  0  0
    8.2760   -0.4729   -0.0000 C   0  0  0  0  0  0  0  0  0  0  0  0
    8.2612   -3.4582   -0.0000 C   0  0  0  0  0  0  0  0  0  0  0  0
   10.8622   -3.4582   -0.0000 C   0  0  0  0  0  0  0  0  0  0  0  0
    6.9459   -2.6897   -0.0000 C   0  0  0  0  0  0  0  0  0  0  0  0
    8.2464   -4.9360   -0.0000 C   0  0  0  0  0  0  0  0  0  0  0  0
    5.6306   -3.4286   -0.0000 C   0  0  0  0  0  0  0  0  0  0  0  0
    6.9311   -5.6750   -0.0000 C   0  0  0  0  0  0  0  0  0  0  0  0
    4.1971   -2.9557   -0.0000 N   0  0  0  0  0  0  0  0  0  0  0  0
    5.6158   -4.9065   -0.0000 C   0  0  0  0  0  0  0  0  0  0  0  0
    3.3104   -4.1528   -0.0000 N   0  0  0  0  0  0  0  0  0  0  0  0
    3.7242   -1.5222   -0.0000 C   0  0  0  0  0  0  0  0  0  0  0  0
    4.1823   -5.3498   -0.0000 C   0  0  0  0  0  0  0  0  0  0  0  0
    3.7094   -6.7538   -0.0000 C   0  0  0  0  0  0  0  0  0  0  0  0
  2  3  2  0
  2  4  2  0
  2  5  1  0
  2  6  1  0
  6  7  2  0
  6  8  1  0
  7  9  1  0
  8 10  2  0
  9 11  1  0
  9 12  2  0
 11 13  1  0
 13 14  2  0
 13 15  1  0
 14 16  1  0
 15 17  2  0
 16 18  1  0
 16 19  2  0
 18 20  1  0
 18 21  1  0
 20 22  2  0
 20 23  1  0
 22 24  1  0
 23 25  2  0
 24 26  1  0
 24 27  2  0
 26 28  1  0
 26 29  1  0
 27 30  1  0
 30 31  1  0
 10 12  1  0
 17 19  1  0
 25 27  1  0
 28 30  2  0
M  END
>  <MolRegNo>  (1) 
1157704

>  <m>  (1) 
=

>  <Value>  (1) 
6300

>  <Unit>  (1) 
nM

>  <Type>  (1) 
IC50

>  <pValue>  (1) 
5.2

>  <Ligand Efficiency>  (1) 
0

>  <Binding Efficiency>  (1) 
0

>  <Surface Efficiency>  (1) 
0

>  <Assay Index>  (1) 
338813

>  <Assay Category>  (1) 


>  <Assay Organism>  (1) 
Homo sapiens

>  <Target ID>  (1) 
11365

>  <Target Name>  (1) 
Cytochrome P450 2D6

>  <Target Organism>  (1) 
Homo sapiens

>  <Target Description>  (1) 
Target is a single protein chain

>  <Sequence Accession>  (1) 
P10635

>  <Reference>  (1) 
J Med Chem 51 (15), 4632-4640 (2008)

>  <Pubmed ID>  (1) 
18620382

>  <DOI>  (1) 
10.1021/jm800566m

$$$$
