4wnv_ligand_373
     RDKit          2D

 36 39  0  0  0  0  0  0  0  0999 V2000
    0.0000   -0.0000   -0.0000 F   0  0  0  0  0  0  0  0  0  0  0  0
   -0.0119    1.5066   -0.0000 C   0  0  0  0  0  0  0  0  0  0  0  0
    1.2694    2.2659   -0.0000 C   0  0  0  0  0  0  0  0  0  0  0  0
   -1.3168    2.2659   -0.0000 C   0  0  0  0  0  0  0  0  0  0  0  0
    1.2575    3.7844   -0.0000 C   0  0  0  0  0  0  0  0  0  0  0  0
   -1.3287    3.7725   -0.0000 C   0  0  0  0  0  0  0  0  0  0  0  0
    2.5387    4.5436   -0.0000 F   0  0  0  0  0  0  0  0  0  0  0  0
   -0.0475    4.5318   -0.0000 C   0  0  0  0  0  0  0  0  0  0  0  0
   -2.6336    4.5199   -0.0000 C   0  0  0  0  0  0  0  0  0  0  0  0
   -3.9386    3.7844   -0.0000 O   0  0  0  0  0  0  0  0  0  0  0  0
   -2.6455    6.0265   -0.0000 C   0  0  0  0  0  0  0  0  0  0  0  0
   -2.6574    3.0489   -0.0000 C   0  0  0  0  0  0  0  0  0  0  0  0
   -5.2436    4.5318   -0.0000 C   0  0  0  0  0  0  0  0  0  0  0  0
   -1.3643    6.7858   -0.0000 O   0  0  0  0  0  0  0  0  0  0  0  0
   -3.9505    6.7976   -0.0000 N   0  0  0  0  0  0  0  0  0  0  0  0
   -5.2554    6.0384   -0.0000 C   0  0  0  0  0  0  0  0  0  0  0  0
   -6.5485    3.7962   -0.0000 C   0  0  0  0  0  0  0  0  0  0  0  0
   -3.9623    8.3043   -0.0000 C   0  0  0  0  0  0  0  0  0  0  0  0
   -6.5604    6.7976   -0.0000 C   0  0  0  0  0  0  0  0  0  0  0  0
   -7.8535    4.5555   -0.0000 C   0  0  0  0  0  0  0  0  0  0  0  0
   -2.6811    9.0635   -0.0000 C   0  0  0  0  0  0  0  0  0  0  0  0
   -7.8535    6.0621   -0.0000 C   0  0  0  0  0  0  0  0  0  0  0  0
   -1.3999    8.3399   -0.0000 O   0  0  0  0  0  0  0  0  0  0  0  0
   -2.6930   10.5702   -0.0000 N   0  0  0  0  0  0  0  0  0  0  0  0
   -9.1466    6.8214   -0.0000 C   0  0  0  0  0  0  0  0  0  0  0  0
   -1.4117   11.3294   -0.0000 C   0  0  0  0  0  0  0  0  0  0  0  0
   -9.1584    8.3399   -0.0000 C   0  0  0  0  0  0  0  0  0  0  0  0
  -10.4634    6.0859   -0.0000 C   0  0  0  0  0  0  0  0  0  0  0  0
   -0.1305   10.6058   -0.0000 C   0  0  0  0  0  0  0  0  0  0  0  0
  -10.4753    9.0873   -0.0000 N   0  0  0  0  0  0  0  0  0  0  0  0
   -7.8772    9.0991   -0.0000 N   0  0  0  0  0  0  0  0  0  0  0  0
  -11.7683    6.8451   -0.0000 N   0  0  0  0  0  0  0  0  0  0  0  0
  -10.4753    4.6029   -0.0000 C   0  0  0  0  0  0  0  0  0  0  0  0
  -11.7802    8.3517   -0.0000 C   0  0  0  0  0  0  0  0  0  0  0  0
  -11.7802    3.8674   -0.0000 C   0  0  0  0  0  0  0  0  0  0  0  0
  -13.0852    9.1110   -0.0000 N   0  0  0  0  0  0  0  0  0  0  0  0
  1  2  1  0
  2  3  2  0
  2  4  1  0
  3  5  1  0
  4  6  2  0
  5  7  1  0
  5  8  2  0
  6  9  1  0
  9 10  1  0
  9 11  1  0
  9 12  1  0
 10 13  1  0
 11 14  2  0
 11 15  1  0
 13 16  2  0
 13 17  1  0
 15 18  1  0
 16 19  1  0
 17 20  2  0
 18 21  1  0
 19 22  2  0
 21 23  2  0
 21 24  1  0
 22 25  1  0
 24 26  1  0
 25 27  2  0
 25 28  1  0
 26 29  1  0
 27 30  1  0
 27 31  1  0
 28 32  2  0
 28 33  1  0
 30 34  2  0
 33 35  1  0
 34 36  1  0
  6  8  1  0
 15 16  1  0
 20 22  1  0
 32 34  1  0
M  END
>  <MolRegNo>  (1) 
405842

>  <m>  (1) 
=

>  <Value>  (1) 
1890

>  <Unit>  (1) 
nM

>  <Type>  (1) 
IC50

>  <pValue>  (1) 
5.72

>  <Ligand Efficiency>  (1) 
0

>  <Binding Efficiency>  (1) 
0

>  <Surface Efficiency>  (1) 
0

>  <Assay Index>  (1) 
297171

>  <Assay Category>  (1) 


>  <Assay Organism>  (1) 


>  <Target ID>  (1) 
11365

>  <Target Name>  (1) 
Cytochrome P450 2D6

>  <Target Organism>  (1) 
Homo sapiens

>  <Target Description>  (1) 
Target is a single protein chain

>  <Sequence Accession>  (1) 
P10635

>  <Reference>  (1) 
Bioorg Med Chem 15 (17), 5912-5949 (2007)

>  <Pubmed ID>  (1) 
17574423

>  <DOI>  (1) 
10.1016/j.bmc.2007.05.069

$$$$
