4wnv_ligand_475
     RDKit          2D

 28 31  0  0  0  0  0  0  0  0999 V2000
    0.0000   -0.0000   -0.0000 F   0  0  0  0  0  0  0  0  0  0  0  0
    1.2959   -0.7371   -0.0000 C   0  0  0  0  0  0  0  0  0  0  0  0
    1.2840   -2.2351   -0.0000 C   0  0  0  0  0  0  0  0  0  0  0  0
    2.5918    0.0238   -0.0000 C   0  0  0  0  0  0  0  0  0  0  0  0
    2.5799   -2.9722   -0.0000 C   0  0  0  0  0  0  0  0  0  0  0  0
   -0.0357   -2.9722   -0.0000 C   0  0  0  0  0  0  0  0  0  0  0  0
    3.8877   -0.7133   -0.0000 C   0  0  0  0  0  0  0  0  0  0  0  0
    3.8758   -2.2113   -0.0000 C   0  0  0  0  0  0  0  0  0  0  0  0
   -0.0476   -4.4702   -0.0000 N   0  0  0  0  0  0  0  0  0  0  0  0
   -1.3672   -5.2192   -0.0000 C   0  0  0  0  0  0  0  0  0  0  0  0
    1.2483   -5.2192   -0.0000 C   0  0  0  0  0  0  0  0  0  0  0  0
   -1.3791   -6.7172   -0.0000 C   0  0  0  0  0  0  0  0  0  0  0  0
    1.2364   -6.7172   -0.0000 C   0  0  0  0  0  0  0  0  0  0  0  0
   -0.0832   -7.4543   -0.0000 C   0  0  0  0  0  0  0  0  0  0  0  0
   -0.0951   -8.9523   -0.0000 C   0  0  0  0  0  0  0  0  0  0  0  0
    1.2008   -9.7013   -0.0000 O   0  0  0  0  0  0  0  0  0  0  0  0
    1.1889  -11.1993   -0.0000 C   0  0  0  0  0  0  0  0  0  0  0  0
    2.4848  -11.9483   -0.0000 C   0  0  0  0  0  0  0  0  0  0  0  0
   -0.1308  -11.9483   -0.0000 C   0  0  0  0  0  0  0  0  0  0  0  0
    3.7807  -11.1874   -0.0000 C   0  0  0  0  0  0  0  0  0  0  0  0
    2.4729  -13.4463   -0.0000 C   0  0  0  0  0  0  0  0  0  0  0  0
   -0.1427  -13.4463   -0.0000 C   0  0  0  0  0  0  0  0  0  0  0  0
    5.0766  -11.9365   -0.0000 N   0  0  0  0  0  0  0  0  0  0  0  0
    3.7688   -9.6657   -0.0000 N   0  0  0  0  0  0  0  0  0  0  0  0
    3.7688  -14.1835   -0.0000 N   0  0  0  0  0  0  0  0  0  0  0  0
    1.1532  -14.1835   -0.0000 C   0  0  0  0  0  0  0  0  0  0  0  0
    5.0647  -13.4345   -0.0000 C   0  0  0  0  0  0  0  0  0  0  0  0
    6.3606  -14.1716   -0.0000 N   0  0  0  0  0  0  0  0  0  0  0  0
  1  2  1  0
  2  3  2  0
  2  4  1  0
  3  5  1  0
  3  6  1  0
  4  7  2  0
  5  8  2  0
  6  9  1  0
  9 10  1  0
  9 11  1  0
 10 12  1  0
 11 13  1  0
 12 14  1  0
 14 15  1  0
 15 16  1  0
 16 17  1  0
 17 18  1  0
 17 19  2  0
 18 20  2  0
 18 21  1  0
 19 22  1  0
 20 23  1  0
 20 24  1  0
 21 25  2  0
 21 26  1  0
 23 27  2  0
 27 28  1  0
  7  8  1  0
 13 14  1  0
 22 26  2  0
 25 27  1  0
M  END
>  <MolRegNo>  (1) 
420467

>  <m>  (1) 
=

>  <Value>  (1) 
9380

>  <Unit>  (1) 
nM

>  <Type>  (1) 
IC50

>  <pValue>  (1) 
5.03

>  <Ligand Efficiency>  (1) 
0

>  <Binding Efficiency>  (1) 
0

>  <Surface Efficiency>  (1) 
0

>  <Assay Index>  (1) 
309936

>  <Assay Category>  (1) 


>  <Assay Organism>  (1) 
Homo sapiens

>  <Target ID>  (1) 
11365

>  <Target Name>  (1) 
Cytochrome P450 2D6

>  <Target Organism>  (1) 
Homo sapiens

>  <Target Description>  (1) 
Target is a single protein chain

>  <Sequence Accession>  (1) 
P10635

>  <Reference>  (1) 
J Med Chem 51 (3), 449-469 (2008)

>  <Pubmed ID>  (1) 
18205293

>  <DOI>  (1) 
10.1021/jm061475p

$$$$
