4wnv_ligand_729
     RDKit          2D

 41 44  0  0  0  0  0  0  0  0999 V2000
    0.0000   -0.0000   -0.0000 Cl  0  0  0  0  0  0  0  0  0  0  0  0
  -11.6643   -2.8683   -0.0000 F   0  0  0  0  0  0  0  0  0  0  0  0
  -10.3616   -3.6092   -0.0000 C   0  0  0  0  0  0  0  0  0  0  0  0
   -9.0709   -2.8444   -0.0000 C   0  0  0  0  0  0  0  0  0  0  0  0
  -10.3616   -5.1151   -0.0000 C   0  0  0  0  0  0  0  0  0  0  0  0
   -7.7802   -3.5853   -0.0000 C   0  0  0  0  0  0  0  0  0  0  0  0
   -9.0709   -5.8441   -0.0000 C   0  0  0  0  0  0  0  0  0  0  0  0
   -7.7921   -5.0792   -0.0000 C   0  0  0  0  0  0  0  0  0  0  0  0
   -6.5014   -5.8202   -0.0000 C   0  0  0  0  0  0  0  0  0  0  0  0
   -5.2107   -5.0553   -0.0000 C   0  0  0  0  0  0  0  0  0  0  0  0
   -3.9200   -5.7963   -0.0000 C   0  0  0  0  0  0  0  0  0  0  0  0
   -5.2226   -3.5375   -0.0000 C   0  0  0  0  0  0  0  0  0  0  0  0
   -2.6292   -5.0314   -0.0000 N   0  0  0  0  0  0  0  0  0  0  0  0
   -3.9319   -2.7607   -0.0000 C   0  0  0  0  0  0  0  0  0  0  0  0
   -2.6412   -3.5136   -0.0000 C   0  0  0  0  0  0  0  0  0  0  0  0
   -1.3385   -5.7724   -0.0000 C   0  0  0  0  0  0  0  0  0  0  0  0
   -1.3505   -7.2663   -0.0000 C   0  0  0  0  0  0  0  0  0  0  0  0
   -2.6651   -8.0072   -0.0000 O   0  0  0  0  0  0  0  0  0  0  0  0
   -0.0359   -7.9953   -0.0000 C   0  0  0  0  0  0  0  0  0  0  0  0
   -2.6651   -9.5131   -0.0000 C   0  0  0  0  0  0  0  0  0  0  0  0
    1.2549   -7.2185   -0.0000 N   0  0  0  0  0  0  0  0  0  0  0  0
   -0.0359   -9.4892   -0.0000 C   0  0  0  0  0  0  0  0  0  0  0  0
    1.2549   -8.7362   -0.0000 C   0  0  0  0  0  0  0  0  0  0  0  0
   -3.9797  -10.2660   -0.0000 O   0  0  0  0  0  0  0  0  0  0  0  0
   -1.3624  -10.2421   -0.0000 N   0  0  0  0  0  0  0  0  0  0  0  0
    2.5575   -7.9475   -0.0000 C   0  0  0  0  0  0  0  0  0  0  0  0
   -1.3624  -11.7360   -0.0000 C   0  0  0  0  0  0  0  0  0  0  0  0
    3.8482   -7.1706   -0.0000 O   0  0  0  0  0  0  0  0  0  0  0  0
    2.5575   -9.4414   -0.0000 N   0  0  0  0  0  0  0  0  0  0  0  0
    3.8602  -10.1704   -0.0000 C   0  0  0  0  0  0  0  0  0  0  0  0
    3.8602  -11.6643   -0.0000 C   0  0  0  0  0  0  0  0  0  0  0  0
    5.1509   -9.3935   -0.0000 C   0  0  0  0  0  0  0  0  0  0  0  0
    5.1509  -12.3933   -0.0000 C   0  0  0  0  0  0  0  0  0  0  0  0
    6.4536  -10.1226   -0.0000 C   0  0  0  0  0  0  0  0  0  0  0  0
    5.1509  -13.8872   -0.0000 C   0  0  0  0  0  0  0  0  0  0  0  0
    6.4536  -11.6164   -0.0000 C   0  0  0  0  0  0  0  0  0  0  0  0
    6.3699  -14.7596   -0.0000 N   0  0  0  0  0  0  0  0  0  0  0  0
    3.9200  -14.7715   -0.0000 N   0  0  0  0  0  0  0  0  0  0  0  0
    5.9038  -16.1818   -0.0000 N   0  0  0  0  0  0  0  0  0  0  0  0
    4.3860  -16.1937   -0.0000 N   0  0  0  0  0  0  0  0  0  0  0  0
    2.4739  -14.3054   -0.0000 C   0  0  0  0  0  0  0  0  0  0  0  0
  2  3  1  0
  3  4  2  0
  3  5  1  0
  4  6  1  0
  5  7  2  0
  6  8  2  0
  8  9  1  0
 10  9  1  1
 10 11  1  0
 10 12  1  0
 11 13  1  0
 12 14  1  0
 13 15  1  0
 13 16  1  0
 16 17  1  0
 17 18  1  0
 17 19  1  0
 18 20  1  0
 19 21  1  0
 19 22  1  0
 19 23  1  0
 20 24  2  0
 20 25  1  0
 21 26  1  0
 25 27  1  0
 26 28  2  0
 26 29  1  0
 29 30  1  0
 30 31  2  0
 30 32  1  0
 31 33  1  0
 32 34  2  0
 33 35  1  0
 33 36  2  0
 35 37  2  0
 35 38  1  0
 37 39  1  0
 38 40  1  0
 38 41  1  0
  7  8  1  0
 14 15  1  0
 22 25  1  0
 34 36  1  0
 39 40  2  0
M  END
>  <MolRegNo>  (1) 
473561

>  <m>  (1) 
=

>  <Value>  (1) 
17000

>  <Unit>  (1) 
nM

>  <Type>  (1) 
IC50

>  <pValue>  (1) 
4.77

>  <Ligand Efficiency>  (1) 
0

>  <Binding Efficiency>  (1) 
0

>  <Surface Efficiency>  (1) 
0

>  <Assay Index>  (1) 
409097

>  <Assay Category>  (1) 


>  <Assay Organism>  (1) 


>  <Target ID>  (1) 
11365

>  <Target Name>  (1) 
Cytochrome P450 2D6

>  <Target Organism>  (1) 
Homo sapiens

>  <Target Description>  (1) 
Target is a single protein chain

>  <Sequence Accession>  (1) 
P10635

>  <Reference>  (1) 
Bioorg Med Chem Lett 19 (1), 96-99 (2009)

>  <Pubmed ID>  (1) 
19010676

>  <DOI>  (1) 
10.1016/j.bmcl.2008.11.002

$$$$
