4wnv_ligand_842
     RDKit          2D

 26 27  0  0  0  0  0  0  0  0999 V2000
    0.0000   -0.0000   -0.0000 S   0  0  0  0  0  0  0  0  0  0  0  0
   -1.2231   -0.3909   -0.0000 O   0  0  0  0  0  0  0  0  0  0  0  0
   -0.2774   -1.2483   -0.0000 O   0  0  0  0  0  0  0  0  0  0  0  0
    0.3152    1.5761   -0.0000 N   0  0  0  0  0  0  0  0  0  0  0  0
    0.9457   -0.8448   -0.0000 C   0  0  0  0  0  0  0  0  0  0  0  0
    1.8283    2.0931   -0.0000 C   0  0  0  0  0  0  0  0  0  0  0  0
    2.1435    3.6692   -0.0000 C   0  0  0  0  0  0  0  0  0  0  0  0
    3.5684    4.3501   -0.0000 N   0  0  0  0  0  0  0  0  0  0  0  0
    1.0592    4.8671   -0.0000 C   0  0  0  0  0  0  0  0  0  0  0  0
    4.9428    3.5684   -0.0000 C   0  0  0  0  0  0  0  0  0  0  0  0
    3.4045    5.9389   -0.0000 C   0  0  0  0  0  0  0  0  0  0  0  0
    1.8535    6.2667   -0.0000 C   0  0  0  0  0  0  0  0  0  0  0  0
    4.9302    2.2949   -0.0000 O   0  0  0  0  0  0  0  0  0  0  0  0
    6.3172    4.3880   -0.0000 C   0  0  0  0  0  0  0  0  0  0  0  0
    7.6916    3.6062   -0.0000 C   0  0  0  0  0  0  0  0  0  0  0  0
    7.6789    2.3327   -0.0000 N   0  0  0  0  0  0  0  0  0  0  0  0
    9.0659    4.4258   -0.0000 C   0  0  0  0  0  0  0  0  0  0  0  0
   10.4403    3.6440   -0.0000 C   0  0  0  0  0  0  0  0  0  0  0  0
   11.8147    4.4510   -0.0000 C   0  0  0  0  0  0  0  0  0  0  0  0
   10.4277    2.0553   -0.0000 C   0  0  0  0  0  0  0  0  0  0  0  0
   11.8021    5.7498   -0.0000 F   0  0  0  0  0  0  0  0  0  0  0  0
   13.1891    3.6566   -0.0000 C   0  0  0  0  0  0  0  0  0  0  0  0
   11.8021    1.2609   -0.0000 C   0  0  0  0  0  0  0  0  0  0  0  0
   13.1765    2.0679   -0.0000 C   0  0  0  0  0  0  0  0  0  0  0  0
   11.7895   -0.0126   -0.0000 F   0  0  0  0  0  0  0  0  0  0  0  0
   14.2735    1.4374   -0.0000 F   0  0  0  0  0  0  0  0  0  0  0  0
  1  2  2  0
  1  3  2  0
  1  4  1  0
  1  5  1  0
  4  6  1  0
  7  6  1  1
  7  8  1  0
  7  9  1  0
  8 10  1  0
  8 11  1  0
  9 12  1  0
 10 13  2  0
 10 14  1  0
 14 15  1  0
 15 16  1  6
 15 17  1  0
 17 18  1  0
 18 19  2  0
 18 20  1  0
 19 21  1  0
 19 22  1  0
 20 23  2  0
 22 24  2  0
 23 25  1  0
 24 26  1  0
 11 12  1  0
 23 24  1  0
M  END
>  <MolRegNo>  (1) 
557211

>  <m>  (1) 
=

>  <Value>  (1) 
14200

>  <Unit>  (1) 
nM

>  <Type>  (1) 
IC50

>  <pValue>  (1) 
4.85

>  <Ligand Efficiency>  (1) 
0

>  <Binding Efficiency>  (1) 
0

>  <Surface Efficiency>  (1) 
0

>  <Assay Index>  (1) 
428036

>  <Assay Category>  (1) 


>  <Assay Organism>  (1) 
Homo sapiens

>  <Target ID>  (1) 
11365

>  <Target Name>  (1) 
Cytochrome P450 2D6

>  <Target Organism>  (1) 
Homo sapiens

>  <Target Description>  (1) 
Target is a single protein chain

>  <Sequence Accession>  (1) 
P10635

>  <Reference>  (1) 
Bioorg Med Chem Lett 19 (16), 4818-4823 (2009)

>  <Pubmed ID>  (1) 
19576767

>  <DOI>  (1) 
10.1016/j.bmcl.2009.06.036

$$$$
