4wnv_ligand_74
     RDKit          2D

 17 18  0  0  0  0  0  0  0  0999 V2000
    0.0000   -0.0000   -0.0000 O   0  0  0  0  0  0  0  0  0  0  0  0
    1.2619    0.7857   -0.0000 C   0  0  0  0  0  0  0  0  0  0  0  0
   -1.3214    0.7381   -0.0000 C   0  0  0  0  0  0  0  0  0  0  0  0
    1.2262    2.2976   -0.0000 C   0  0  0  0  0  0  0  0  0  0  0  0
    2.5595    0.0595   -0.0000 C   0  0  0  0  0  0  0  0  0  0  0  0
   -2.6309   -0.0238   -0.0000 C   0  0  0  0  0  0  0  0  0  0  0  0
    2.5119    3.0714   -0.0000 C   0  0  0  0  0  0  0  0  0  0  0  0
    3.8333    0.9048   -0.0000 C   0  0  0  0  0  0  0  0  0  0  0  0
   -3.9405    0.7262   -0.0000 N   0  0  0  0  0  0  0  0  0  0  0  0
    3.8095    2.3452   -0.0000 C   0  0  0  0  0  0  0  0  0  0  0  0
   -3.9762    2.2500   -0.0000 C   0  0  0  0  0  0  0  0  0  0  0  0
   -5.2500   -0.0238   -0.0000 C   0  0  0  0  0  0  0  0  0  0  0  0
    5.0714    3.1309   -0.0000 N   0  0  0  0  0  0  0  0  0  0  0  0
    5.1905    4.6428   -0.0000 C   0  0  0  0  0  0  0  0  0  0  0  0
    6.4404    2.5476   -0.0000 C   0  0  0  0  0  0  0  0  0  0  0  0
    6.6428    4.9762   -0.0000 N   0  0  0  0  0  0  0  0  0  0  0  0
    7.4166    3.6786   -0.0000 C   0  0  0  0  0  0  0  0  0  0  0  0
  1  2  1  0
  1  3  1  0
  2  4  2  0
  2  5  1  0
  3  6  1  0
  4  7  1  0
  5  8  2  0
  6  9  1  0
  7 10  2  0
  9 11  1  0
  9 12  1  0
 10 13  1  0
 13 14  1  0
 13 15  1  0
 14 16  2  0
 15 17  2  0
  8 10  1  0
 16 17  1  0
M  END
>  <MolRegNo>  (1) 
185915

>  <m>  (1) 
=

>  <Value>  (1) 
1050

>  <Unit>  (1) 
nM

>  <Type>  (1) 
IC50

>  <pValue>  (1) 
5.98

>  <Ligand Efficiency>  (1) 
0

>  <Binding Efficiency>  (1) 
0

>  <Surface Efficiency>  (1) 
0

>  <Assay Index>  (1) 
51639

>  <Assay Category>  (1) 


>  <Assay Organism>  (1) 
Homo sapiens

>  <Target ID>  (1) 
11365

>  <Target Name>  (1) 
Cytochrome P450 2D6

>  <Target Organism>  (1) 
Homo sapiens

>  <Target Description>  (1) 
Target is a single protein chain

>  <Sequence Accession>  (1) 
P10635

>  <Reference>  (1) 
Bioorg Med Chem Lett 14 (2), 333-336 (2004)

>  <Pubmed ID>  (1) 
14698153

>  <DOI>  (1) 
10.1016/j.bmcl.2003.11.005

$$$$
