4wnv_ligand_43
     RDKit          2D

 15 15  0  0  0  0  0  0  0  0999 V2000
    0.0000   -0.0000   -0.0000 O   0  0  0  0  0  0  0  0  0  0  0  0
   -1.3065    0.7533   -0.0000 N   0  0  0  0  0  0  0  0  0  0  0  0
   -2.6129    0.0235   -0.0000 C   0  0  0  0  0  0  0  0  0  0  0  0
   -3.9312    0.7651   -0.0000 N   0  0  0  0  0  0  0  0  0  0  0  0
   -5.2377    0.0235   -0.0000 C   0  0  0  0  0  0  0  0  0  0  0  0
   -5.2494   -1.4595   -0.0000 C   0  0  0  0  0  0  0  0  0  0  0  0
   -6.5441    0.7768   -0.0000 C   0  0  0  0  0  0  0  0  0  0  0  0
   -6.5559   -2.1892   -0.0000 C   0  0  0  0  0  0  0  0  0  0  0  0
   -3.9547   -2.1892   -0.0000 C   0  0  0  0  0  0  0  0  0  0  0  0
   -7.8506    0.0471   -0.0000 C   0  0  0  0  0  0  0  0  0  0  0  0
   -7.8624   -1.4359   -0.0000 C   0  0  0  0  0  0  0  0  0  0  0  0
   -9.1688   -2.1657   -0.0000 C   0  0  0  0  0  0  0  0  0  0  0  0
  -10.4753   -1.4124   -0.0000 C   0  0  0  0  0  0  0  0  0  0  0  0
  -11.7935   -2.1421   -0.0000 C   0  0  0  0  0  0  0  0  0  0  0  0
  -13.1000   -1.3889   -0.0000 C   0  0  0  0  0  0  0  0  0  0  0  0
  1  2  1  0
  2  3  1  0
  3  4  2  0
  4  5  1  0
  5  6  2  0
  5  7  1  0
  6  8  1  0
  6  9  1  0
  7 10  2  0
  8 11  2  0
 11 12  1  0
 12 13  1  0
 13 14  1  0
 14 15  1  0
 10 11  1  0
M  END
>  <MolRegNo>  (1) 
186431

>  <m>  (1) 
=

>  <Value>  (1) 
84500

>  <Unit>  (1) 
nM

>  <Type>  (1) 
IC50

>  <pValue>  (1) 
4.07

>  <Ligand Efficiency>  (1) 
0

>  <Binding Efficiency>  (1) 
0

>  <Surface Efficiency>  (1) 
0

>  <Assay Index>  (1) 
51627

>  <Assay Category>  (1) 


>  <Assay Organism>  (1) 


>  <Target ID>  (1) 
11365

>  <Target Name>  (1) 
Cytochrome P450 2D6

>  <Target Organism>  (1) 
Homo sapiens

>  <Target Description>  (1) 
Target is a single protein chain

>  <Sequence Accession>  (1) 
P10635

>  <Reference>  (1) 
J Med Chem 46 (25), 5416-5427 (2003)

>  <Pubmed ID>  (1) 
14640550

>  <DOI>  (1) 
10.1021/jm020557k

$$$$
