4wnv_ligand_299
     RDKit          2D

 36 40  0  0  1  0  0  0  0  0999 V2000
    0.0000   -0.0000   -0.0000 O   0  0  0  0  0  0  0  0  0  0  0  0
   -0.9102   -1.1939   -0.0000 C   0  0  0  0  0  0  0  0  0  0  0  0
   -0.3310   -2.5652   -0.0000 N   0  0  0  0  0  0  0  0  0  0  0  0
   -2.4115   -1.0048   -0.0000 N   0  0  0  0  0  0  0  0  0  0  0  0
    1.1112   -2.8844   -0.0000 C   0  0  0  0  0  0  0  0  0  0  0  0
   -1.1112   -3.8419   -0.0000 C   0  0  0  0  0  0  0  0  0  0  0  0
   -3.4400   -2.0924   -0.0000 C   0  0  0  0  0  0  0  0  0  0  0  0
   -3.1444    0.3192   -0.0000 C   0  0  0  0  0  0  0  0  0  0  0  0
    1.2412   -4.3620   -0.0000 C   0  0  0  0  0  0  0  0  0  0  0  0
   -0.1300   -4.9531   -0.0000 C   0  0  0  0  0  0  0  0  0  0  0  0
   -4.8112   -1.4540   -0.0000 C   0  0  0  0  0  0  0  0  0  0  0  0
   -4.6221    0.0473   -0.0000 C   0  0  0  0  0  0  0  0  0  0  0  0
    2.5179   -5.1186   -0.0000 N   0  0  0  0  0  0  0  0  0  0  0  0
   -6.1352   -2.1751   -0.0000 N   0  0  0  0  0  0  0  0  0  0  0  0
    2.4825   -6.5962   -0.0000 C   0  0  0  0  0  0  0  0  0  0  0  0
    3.8064   -4.3620   -0.0000 C   0  0  0  0  0  0  0  0  0  0  0  0
   -7.4355   -1.3949   -0.0000 C   0  0  0  0  0  0  0  0  0  0  0  0
   -6.2180   -3.6528   -0.0000 C   0  0  0  0  0  0  0  0  0  0  0  0
    3.7591   -7.3528   -0.0000 C   0  0  0  0  0  0  0  0  0  0  0  0
    5.0831   -5.1186   -0.0000 C   0  0  0  0  0  0  0  0  0  0  0  0
   -7.4237    0.1182   -0.0000 O   0  0  0  0  0  0  0  0  0  0  0  0
   -8.7595   -2.1160   -0.0000 C   0  0  0  0  0  0  0  0  0  0  0  0
    5.0595   -6.6081   -0.0000 C   0  0  0  0  0  0  0  0  0  0  0  0
  -10.0599   -1.3358   -0.0000 C   0  0  0  0  0  0  0  0  0  0  0  0
   -8.7832   -3.5936   -0.0000 C   0  0  0  0  0  0  0  0  0  0  0  0
  -11.3838   -2.0569   -0.0000 C   0  0  0  0  0  0  0  0  0  0  0  0
  -10.0953   -4.3147   -0.0000 C   0  0  0  0  0  0  0  0  0  0  0  0
  -11.4193   -3.5464   -0.0000 C   0  0  0  0  0  0  0  0  0  0  0  0
  -12.7433   -4.2675   -0.0000 C   0  0  0  0  0  0  0  0  0  0  0  0
  -14.0436   -3.4873   -0.0000 C   0  0  0  0  0  0  0  0  0  0  0  0
  -12.7669   -5.7569   -0.0000 C   0  0  0  0  0  0  0  0  0  0  0  0
  -15.3676   -4.2084   -0.0000 C   0  0  0  0  0  0  0  0  0  0  0  0
  -14.0791   -6.4780   -0.0000 C   0  0  0  0  0  0  0  0  0  0  0  0
  -15.4030   -5.6978   -0.0000 C   0  0  0  0  0  0  0  0  0  0  0  0
  -16.7270   -6.4189   -0.0000 C   0  0  0  0  0  0  0  0  0  0  0  0
  -18.0274   -5.6387   -0.0000 C   0  0  0  0  0  0  0  0  0  0  0  0
  1  2  2  0
  2  3  1  0
  2  4  1  0
  3  5  1  0
  3  6  1  0
  4  7  1  0
  4  8  1  0
  5  9  1  0
  6 10  1  0
  7 11  1  0
  8 12  1  0
  9 13  1  6
 11 14  1  1
 13 15  1  0
 13 16  1  0
 14 17  1  0
 14 18  1  0
 15 19  1  0
 16 20  1  0
 17 21  2  0
 17 22  1  0
 19 23  1  0
 22 24  2  0
 22 25  1  0
 24 26  1  0
 25 27  2  0
 26 28  2  0
 28 29  1  0
 29 30  2  0
 29 31  1  0
 30 32  1  0
 31 33  2  0
 32 34  2  0
 34 35  1  0
 35 36  1  0
  9 10  1  0
 11 12  1  0
 20 23  1  0
 27 28  1  0
 33 34  1  0
M  END
>  <MolRegNo>  (1) 
359623

>  <m>  (1) 
=

>  <Value>  (1) 
10400

>  <Unit>  (1) 
nM

>  <Type>  (1) 
IC50

>  <pValue>  (1) 
4.98

>  <Ligand Efficiency>  (1) 
0

>  <Binding Efficiency>  (1) 
0

>  <Surface Efficiency>  (1) 
0

>  <Assay Index>  (1) 
268140

>  <Assay Category>  (1) 


>  <Assay Organism>  (1) 
Homo sapiens

>  <Target ID>  (1) 
11365

>  <Target Name>  (1) 
Cytochrome P450 2D6

>  <Target Organism>  (1) 
Homo sapiens

>  <Target Description>  (1) 
Target is a single protein chain

>  <Sequence Accession>  (1) 
P10635

>  <Reference>  (1) 
Bioorg Med Chem Lett 16 (18), 4922-4930 (2006)

>  <Pubmed ID>  (1) 
16824755

>  <DOI>  (1) 
10.1016/j.bmcl.2006.06.049

$$$$
