4wnv_ligand_172
     RDKit          2D

 32 34  0  0  0  0  0  0  0  0999 V2000
    0.0000   -0.0000   -0.0000 O   0  0  0  0  0  0  0  0  0  0  0  0
   -0.0118    1.5041   -0.0000 C   0  0  0  0  0  0  0  0  0  0  0  0
   -1.3383    2.2858   -0.0000 C   0  0  0  0  0  0  0  0  0  0  0  0
    1.2791    2.2858   -0.0000 C   0  0  0  0  0  0  0  0  0  0  0  0
   -1.3501    3.8017   -0.0000 C   0  0  0  0  0  0  0  0  0  0  0  0
   -2.6411    1.5278   -0.0000 C   0  0  0  0  0  0  0  0  0  0  0  0
    1.2672    3.8017   -0.0000 C   0  0  0  0  0  0  0  0  0  0  0  0
    2.5582    1.5278   -0.0000 C   0  0  0  0  0  0  0  0  0  0  0  0
   -0.0474    4.5715   -0.0000 C   0  0  0  0  0  0  0  0  0  0  0  0
   -2.6529    4.5715   -0.0000 C   0  0  0  0  0  0  0  0  0  0  0  0
   -2.6529    0.0474   -0.0000 O   0  0  0  0  0  0  0  0  0  0  0  0
   -3.9438    2.3095   -0.0000 C   0  0  0  0  0  0  0  0  0  0  0  0
    2.5463    4.5715   -0.0000 C   0  0  0  0  0  0  0  0  0  0  0  0
    2.5463    0.0474   -0.0000 N   0  0  0  0  0  0  0  0  0  0  0  0
    3.8372    2.3095   -0.0000 C   0  0  0  0  0  0  0  0  0  0  0  0
   -0.0592    6.0756   -0.0000 O   0  0  0  0  0  0  0  0  0  0  0  0
   -2.6648    6.0756   -0.0000 O   0  0  0  0  0  0  0  0  0  0  0  0
   -3.9557    3.8254   -0.0000 C   0  0  0  0  0  0  0  0  0  0  0  0
    2.5345    6.0756   -0.0000 N   0  0  0  0  0  0  0  0  0  0  0  0
    3.8254    3.8254   -0.0000 C   0  0  0  0  0  0  0  0  0  0  0  0
    3.8254   -0.6869   -0.0000 C   0  0  0  0  0  0  0  0  0  0  0  0
    3.8136    6.8336   -0.0000 C   0  0  0  0  0  0  0  0  0  0  0  0
    5.1282    0.0711   -0.0000 C   0  0  0  0  0  0  0  0  0  0  0  0
    5.1163    6.0993   -0.0000 C   0  0  0  0  0  0  0  0  0  0  0  0
    6.4191   -0.6632   -0.0000 N   0  0  0  0  0  0  0  0  0  0  0  0
    6.4073    6.8573   -0.0000 N   0  0  0  0  0  0  0  0  0  0  0  0
    7.6982    0.0947   -0.0000 C   0  0  0  0  0  0  0  0  0  0  0  0
    7.6863    6.1230   -0.0000 C   0  0  0  0  0  0  0  0  0  0  0  0
    9.0010   -0.6395   -0.0000 C   0  0  0  0  0  0  0  0  0  0  0  0
    8.9891    6.8810   -0.0000 C   0  0  0  0  0  0  0  0  0  0  0  0
   10.2800    0.1184   -0.0000 O   0  0  0  0  0  0  0  0  0  0  0  0
   10.2682    6.1467   -0.0000 O   0  0  0  0  0  0  0  0  0  0  0  0
  1  2  2  0
  2  3  1  0
  2  4  1  0
  3  5  2  0
  3  6  1  0
  4  7  2  0
  4  8  1  0
  5  9  1  0
  5 10  1  0
  6 11  1  0
  6 12  2  0
  7 13  1  0
  8 14  1  0
  8 15  2  0
  9 16  2  0
 10 17  1  0
 10 18  2  0
 13 19  1  0
 13 20  2  0
 14 21  1  0
 19 22  1  0
 21 23  1  0
 22 24  1  0
 23 25  1  0
 24 26  1  0
 25 27  1  0
 26 28  1  0
 27 29  1  0
 28 30  1  0
 29 31  1  0
 30 32  1  0
  7  9  1  0
 12 18  1  0
 15 20  1  0
M  END
>  <MolRegNo>  (1) 
4504

>  <m>  (1) 
=

>  <Value>  (1) 
76300

>  <Unit>  (1) 
nM

>  <Type>  (1) 
IC50

>  <pValue>  (1) 
4.12

>  <Ligand Efficiency>  (1) 
0

>  <Binding Efficiency>  (1) 
0

>  <Surface Efficiency>  (1) 
0

>  <Assay Index>  (1) 
237541

>  <Assay Category>  (1) 


>  <Assay Organism>  (1) 


>  <Target ID>  (1) 
11365

>  <Target Name>  (1) 
Cytochrome P450 2D6

>  <Target Organism>  (1) 
Homo sapiens

>  <Target Description>  (1) 
Target is a single protein chain

>  <Sequence Accession>  (1) 
P10635

>  <Reference>  (1) 
J Med Chem 47 (22), 5340-5346 (2004)

>  <Pubmed ID>  (1) 
15481972

>  <DOI>  (1) 
10.1021/jm049934e

$$$$
