4wnv_ligand_120
     RDKit          2D

 27 29  0  0  0  0  0  0  0  0999 V2000
    0.0000   -0.0000   -0.0000 O   0  0  0  0  0  0  0  0  0  0  0  0
   -0.7563    1.3205   -0.0000 C   0  0  0  0  0  0  0  0  0  0  0  0
   -0.7563   -1.2605   -0.0000 C   0  0  0  0  0  0  0  0  0  0  0  0
   -0.0240    2.6531   -0.0000 C   0  0  0  0  0  0  0  0  0  0  0  0
   -2.2809    1.3326   -0.0000 C   0  0  0  0  0  0  0  0  0  0  0  0
   -0.0240   -2.6051   -0.0000 C   0  0  0  0  0  0  0  0  0  0  0  0
    1.4886    2.6651   -0.0000 C   0  0  0  0  0  0  0  0  0  0  0  0
   -0.7803    3.9736   -0.0000 C   0  0  0  0  0  0  0  0  0  0  0  0
   -3.0493    2.6651   -0.0000 C   0  0  0  0  0  0  0  0  0  0  0  0
   -0.7803   -3.8656   -0.0000 O   0  0  0  0  0  0  0  0  0  0  0  0
    1.4886   -2.5931   -0.0000 C   0  0  0  0  0  0  0  0  0  0  0  0
    2.9892    2.6771   -0.0000 N   0  0  0  0  0  0  0  0  0  0  0  0
   -2.3050    3.9856   -0.0000 C   0  0  0  0  0  0  0  0  0  0  0  0
    2.2209   -1.2725   -0.0000 N   0  0  0  0  0  0  0  0  0  0  0  0
    3.7215   -1.2605   -0.0000 C   0  0  0  0  0  0  0  0  0  0  0  0
    5.2342   -1.2485   -0.0000 C   0  0  0  0  0  0  0  0  0  0  0  0
    3.7095    0.2761   -0.0000 C   0  0  0  0  0  0  0  0  0  0  0  0
    3.7095   -2.7371   -0.0000 C   0  0  0  0  0  0  0  0  0  0  0  0
    6.0145   -2.5691   -0.0000 C   0  0  0  0  0  0  0  0  0  0  0  0
    5.4502   -3.9256   -0.0000 C   0  0  0  0  0  0  0  0  0  0  0  0
    7.4911   -2.6771   -0.0000 C   0  0  0  0  0  0  0  0  0  0  0  0
    6.5787   -4.8620   -0.0000 C   0  0  0  0  0  0  0  0  0  0  0  0
    4.0457   -4.4298   -0.0000 C   0  0  0  0  0  0  0  0  0  0  0  0
    7.8272   -4.0697   -0.0000 N   0  0  0  0  0  0  0  0  0  0  0  0
    6.3266   -6.3146   -0.0000 C   0  0  0  0  0  0  0  0  0  0  0  0
    3.7936   -5.8944   -0.0000 C   0  0  0  0  0  0  0  0  0  0  0  0
    4.9340   -6.8548   -0.0000 C   0  0  0  0  0  0  0  0  0  0  0  0
  1  2  1  0
  1  3  1  0
  2  4  2  0
  2  5  1  0
  3  6  1  0
  4  7  1  0
  4  8  1  0
  5  9  2  0
  6 10  1  0
  6 11  1  0
  7 12  3  0
  8 13  2  0
 11 14  1  0
 14 15  1  0
 15 16  1  0
 15 17  1  0
 15 18  1  0
 16 19  1  0
 19 20  1  0
 19 21  2  0
 20 22  2  0
 20 23  1  0
 21 24  1  0
 22 25  1  0
 23 26  2  0
 25 27  2  0
  9 13  1  0
 22 24  1  0
 26 27  1  0
M  END
>  <MolRegNo>  (1) 
159883

>  <m>  (1) 
=

>  <Value>  (1) 
50

>  <Unit>  (1) 
nM

>  <Type>  (1) 
IC50

>  <pValue>  (1) 
7.3

>  <Ligand Efficiency>  (1) 
0

>  <Binding Efficiency>  (1) 
0

>  <Surface Efficiency>  (1) 
0

>  <Assay Index>  (1) 
238811

>  <Assay Category>  (1) 


>  <Assay Organism>  (1) 
Homo sapiens

>  <Target ID>  (1) 
11365

>  <Target Name>  (1) 
Cytochrome P450 2D6

>  <Target Organism>  (1) 
Homo sapiens

>  <Target Description>  (1) 
Target is a single protein chain

>  <Sequence Accession>  (1) 
P10635

>  <Reference>  (1) 
Bioorg Med Chem Lett 15 (17), 3816-3820 (2005)

>  <Pubmed ID>  (1) 
15993593

>  <DOI>  (1) 
10.1016/j.bmcl.2005.06.007

$$$$
