4wnv_ligand_474
     RDKit          2D

 42 46  0  0  1  0  0  0  0  0999 V2000
    0.0000   -0.0000   -0.0000 S   0  0  0  0  0  0  0  0  0  0  0  0
    1.2046    0.8945   -0.0000 C   0  0  0  0  0  0  0  0  0  0  0  0
    0.4532   -1.4193   -0.0000 C   0  0  0  0  0  0  0  0  0  0  0  0
    2.4092    0.0239   -0.0000 N   0  0  0  0  0  0  0  0  0  0  0  0
    1.1927    2.4092   -0.0000 N   0  0  0  0  0  0  0  0  0  0  0  0
    1.9441   -1.4074   -0.0000 C   0  0  0  0  0  0  0  0  0  0  0  0
   -0.3339   -2.6835   -0.0000 C   0  0  0  0  0  0  0  0  0  0  0  0
   -0.1193    3.1844   -0.0000 C   0  0  0  0  0  0  0  0  0  0  0  0
    2.8147   -2.6000   -0.0000 C   0  0  0  0  0  0  0  0  0  0  0  0
   -1.8486   -2.6477   -0.0000 O   0  0  0  0  0  0  0  0  0  0  0  0
    0.3817   -3.9835   -0.0000 C   0  0  0  0  0  0  0  0  0  0  0  0
   -1.4312    2.4450   -0.0000 O   0  0  0  0  0  0  0  0  0  0  0  0
   -0.1312    4.6991   -0.0000 N   0  0  0  0  0  0  0  0  0  0  0  0
   -1.4431    5.4625   -0.0000 C   0  0  0  0  0  0  0  0  0  0  0  0
   -1.4551    6.9772   -0.0000 C   0  0  0  0  0  0  0  0  0  0  0  0
   -2.7551    4.7349   -0.0000 C   0  0  0  0  0  0  0  0  0  0  0  0
   -2.7670    7.7524   -0.0000 C   0  0  0  0  0  0  0  0  0  0  0  0
   -0.1550    7.7405   -0.0000 C   0  0  0  0  0  0  0  0  0  0  0  0
   -4.0670    5.4863   -0.0000 C   0  0  0  0  0  0  0  0  0  0  0  0
   -4.0790    7.0010   -0.0000 N   0  0  0  0  0  0  0  0  0  0  0  0
    1.1330    6.9891   -0.0000 N   0  0  0  0  0  0  0  0  0  0  0  0
   -5.3909    7.7524   -0.0000 C   0  0  0  0  0  0  0  0  0  0  0  0
    2.4211    7.7524   -0.0000 C   0  0  0  0  0  0  0  0  0  0  0  0
    1.1211    5.4863   -0.0000 C   0  0  0  0  0  0  0  0  0  0  0  0
   -5.4028    9.2671   -0.0000 O   0  0  0  0  0  0  0  0  0  0  0  0
   -6.6909    7.0129   -0.0000 C   0  0  0  0  0  0  0  0  0  0  0  0
    3.7092    7.0010   -0.0000 C   0  0  0  0  0  0  0  0  0  0  0  0
    2.4092    4.7469   -0.0000 C   0  0  0  0  0  0  0  0  0  0  0  0
   -8.0029    7.7763   -0.0000 C   0  0  0  0  0  0  0  0  0  0  0  0
   -6.7028    5.5340   -0.0000 C   0  0  0  0  0  0  0  0  0  0  0  0
    3.6854    5.5102   -0.0000 C   0  0  0  0  0  0  0  0  0  0  0  0
    5.0092    7.7643   -0.0000 C   0  0  0  0  0  0  0  0  0  0  0  0
   -9.3029    7.0368   -0.0000 C   0  0  0  0  0  0  0  0  0  0  0  0
   -8.0148    4.7946   -0.0000 C   0  0  0  0  0  0  0  0  0  0  0  0
    6.2973    7.0129   -0.0000 C   0  0  0  0  0  0  0  0  0  0  0  0
   -9.3148    5.5459   -0.0000 O   0  0  0  0  0  0  0  0  0  0  0  0
    6.2616    5.5221   -0.0000 C   0  0  0  0  0  0  0  0  0  0  0  0
    7.5854    7.7763   -0.0000 C   0  0  0  0  0  0  0  0  0  0  0  0
    7.5496    4.7826   -0.0000 C   0  0  0  0  0  0  0  0  0  0  0  0
    8.8735    7.0249   -0.0000 C   0  0  0  0  0  0  0  0  0  0  0  0
    8.8497    5.5340   -0.0000 C   0  0  0  0  0  0  0  0  0  0  0  0
   10.1377    4.7946   -0.0000 F   0  0  0  0  0  0  0  0  0  0  0  0
  1  2  1  0
  1  3  1  0
  2  4  2  0
  2  5  1  0
  3  6  2  0
  3  7  1  0
  5  8  1  0
  6  9  1  0
  7 10  2  0
  7 11  1  0
  8 12  2  0
  8 13  1  0
 14 13  1  6
 14 15  1  0
 14 16  1  0
 15 17  1  0
 15 18  1  1
 16 19  1  0
 17 20  1  0
 18 21  1  0
 20 22  1  0
 21 23  1  0
 21 24  1  0
 22 25  2  0
 22 26  1  0
 23 27  1  0
 24 28  1  0
 26 29  1  0
 26 30  1  0
 27 31  1  0
 27 32  1  6
 29 33  1  0
 30 34  1  0
 32 35  1  0
 33 36  1  0
 35 37  2  0
 35 38  1  0
 37 39  1  0
 38 40  2  0
 39 41  2  0
 41 42  1  0
  4  6  1  0
 19 20  1  0
 28 31  1  0
 34 36  1  0
 40 41  1  0
M  END
>  <MolRegNo>  (1) 
421564

>  <m>  (1) 
=

>  <Value>  (1) 
1200

>  <Unit>  (1) 
nM

>  <Type>  (1) 
IC50

>  <pValue>  (1) 
5.92

>  <Ligand Efficiency>  (1) 
0

>  <Binding Efficiency>  (1) 
0

>  <Surface Efficiency>  (1) 
0

>  <Assay Index>  (1) 
307824

>  <Assay Category>  (1) 


>  <Assay Organism>  (1) 
Homo sapiens

>  <Target ID>  (1) 
11365

>  <Target Name>  (1) 
Cytochrome P450 2D6

>  <Target Organism>  (1) 
Homo sapiens

>  <Target Description>  (1) 
Target is a single protein chain

>  <Sequence Accession>  (1) 
P10635

>  <Reference>  (1) 
Bioorg Med Chem Lett 17 (11), 2992-2997 (2007)

>  <Pubmed ID>  (1) 
17418570

>  <DOI>  (1) 
10.1016/j.bmcl.2007.03.065

$$$$
