4wnv_ligand_889
     RDKit          2D

 30 33  0  0  0  0  0  0  0  0999 V2000
    0.0000   -0.0000   -0.0000 Cl  0  0  0  0  0  0  0  0  0  0  0  0
    1.2865    0.7624   -0.0000 C   0  0  0  0  0  0  0  0  0  0  0  0
    2.5731    0.0238   -0.0000 C   0  0  0  0  0  0  0  0  0  0  0  0
    1.2865    2.2753   -0.0000 C   0  0  0  0  0  0  0  0  0  0  0  0
    2.5611   -1.4652   -0.0000 F   0  0  0  0  0  0  0  0  0  0  0  0
    3.8596    0.7862   -0.0000 C   0  0  0  0  0  0  0  0  0  0  0  0
   -0.0357    3.0376   -0.0000 O   0  0  0  0  0  0  0  0  0  0  0  0
    2.5611    3.0376   -0.0000 C   0  0  0  0  0  0  0  0  0  0  0  0
    3.8358    2.3110   -0.0000 C   0  0  0  0  0  0  0  0  0  0  0  0
   -0.0476    4.5505   -0.0000 C   0  0  0  0  0  0  0  0  0  0  0  0
    5.1223    3.0853   -0.0000 O   0  0  0  0  0  0  0  0  0  0  0  0
   -1.3580    5.3010   -0.0000 C   0  0  0  0  0  0  0  0  0  0  0  0
    1.2389    5.3129   -0.0000 C   0  0  0  0  0  0  0  0  0  0  0  0
    6.4207    2.3467   -0.0000 C   0  0  0  0  0  0  0  0  0  0  0  0
   -1.3818    6.8138   -0.0000 C   0  0  0  0  0  0  0  0  0  0  0  0
    1.2270    6.8258   -0.0000 C   0  0  0  0  0  0  0  0  0  0  0  0
    7.7073    3.1210   -0.0000 C   0  0  0  0  0  0  0  0  0  0  0  0
   -2.7041    7.5762   -0.0000 Cl  0  0  0  0  0  0  0  0  0  0  0  0
   -0.0953    7.5881   -0.0000 C   0  0  0  0  0  0  0  0  0  0  0  0
    2.5254    7.5881   -0.0000 C   0  0  0  0  0  0  0  0  0  0  0  0
    7.8383    4.6220   -0.0000 N   0  0  0  0  0  0  0  0  0  0  0  0
    9.0653    2.5254   -0.0000 C   0  0  0  0  0  0  0  0  0  0  0  0
    3.8119    8.3505   -0.0000 N   0  0  0  0  0  0  0  0  0  0  0  0
    9.2916    4.9555   -0.0000 N   0  0  0  0  0  0  0  0  0  0  0  0
   10.0540    3.6571   -0.0000 C   0  0  0  0  0  0  0  0  0  0  0  0
    9.5179    1.1198   -0.0000 C   0  0  0  0  0  0  0  0  0  0  0  0
   11.5073    3.3712   -0.0000 N   0  0  0  0  0  0  0  0  0  0  0  0
   10.9712    0.8219   -0.0000 C   0  0  0  0  0  0  0  0  0  0  0  0
   11.9719    1.9655   -0.0000 C   0  0  0  0  0  0  0  0  0  0  0  0
   13.4371    1.6796   -0.0000 N   0  0  0  0  0  0  0  0  0  0  0  0
  1  2  1  0
  2  3  2  0
  2  4  1  0
  3  5  1  0
  3  6  1  0
  4  7  1  0
  4  8  2  0
  6  9  2  0
  7 10  1  0
  9 11  1  0
 10 12  2  0
 10 13  1  0
 11 14  1  0
 12 15  1  0
 13 16  2  0
 14 17  1  0
 15 18  1  0
 15 19  2  0
 16 20  1  0
 17 21  2  0
 17 22  1  0
 20 23  3  0
 21 24  1  0
 22 25  2  0
 22 26  1  0
 25 27  1  0
 26 28  2  0
 27 29  2  0
 29 30  1  0
  8  9  1  0
 16 19  1  0
 24 25  1  0
 28 29  1  0
M  END
>  <MolRegNo>  (1) 
581348

>  <m>  (1) 
=

>  <Value>  (1) 
47400

>  <Unit>  (1) 
nM

>  <Type>  (1) 
IC50

>  <pValue>  (1) 
4.32

>  <Ligand Efficiency>  (1) 
0

>  <Binding Efficiency>  (1) 
0

>  <Surface Efficiency>  (1) 
0

>  <Assay Index>  (1) 
440404

>  <Assay Category>  (1) 


>  <Assay Organism>  (1) 


>  <Target ID>  (1) 
11365

>  <Target Name>  (1) 
Cytochrome P450 2D6

>  <Target Organism>  (1) 
Homo sapiens

>  <Target Description>  (1) 
Target is a single protein chain

>  <Sequence Accession>  (1) 
P10635

>  <Reference>  (1) 
J Med Chem 52 (22), 7163-7169 (2009)

>  <Pubmed ID>  (1) 
19883100

>  <DOI>  (1) 
10.1021/jm901230r

$$$$
