4wnv_ligand_27
     RDKit          2D

 17 18  0  0  0  0  0  0  0  0999 V2000
    0.0000   -0.0000   -0.0000 O   0  0  0  0  0  0  0  0  0  0  0  0
    1.2902    0.7575   -0.0000 C   0  0  0  0  0  0  0  0  0  0  0  0
   -1.3138    0.7575   -0.0000 C   0  0  0  0  0  0  0  0  0  0  0  0
    1.2665    2.2726   -0.0000 C   0  0  0  0  0  0  0  0  0  0  0  0
    2.5803    0.0237   -0.0000 C   0  0  0  0  0  0  0  0  0  0  0  0
   -2.6395    0.0237   -0.0000 C   0  0  0  0  0  0  0  0  0  0  0  0
    2.5567    3.0301   -0.0000 C   0  0  0  0  0  0  0  0  0  0  0  0
    3.8705    0.7812   -0.0000 C   0  0  0  0  0  0  0  0  0  0  0  0
   -3.9533    0.7812   -0.0000 C   0  0  0  0  0  0  0  0  0  0  0  0
    3.8468    2.2963   -0.0000 C   0  0  0  0  0  0  0  0  0  0  0  0
   -5.2672    0.0473   -0.0000 C   0  0  0  0  0  0  0  0  0  0  0  0
    5.1370    3.0538   -0.0000 C   0  0  0  0  0  0  0  0  0  0  0  0
    5.2790    4.5570   -0.0000 N   0  0  0  0  0  0  0  0  0  0  0  0
    6.4863    2.4620   -0.0000 C   0  0  0  0  0  0  0  0  0  0  0  0
    6.7349    4.8884   -0.0000 N   0  0  0  0  0  0  0  0  0  0  0  0
    7.4806    3.6101   -0.0000 C   0  0  0  0  0  0  0  0  0  0  0  0
    6.7941    1.0061   -0.0000 C   0  0  0  0  0  0  0  0  0  0  0  0
  1  2  1  0
  1  3  1  0
  2  4  2  0
  2  5  1  0
  3  6  1  0
  4  7  1  0
  5  8  2  0
  6  9  1  0
  7 10  2  0
  9 11  1  0
 10 12  1  0
 12 13  1  0
 12 14  2  0
 13 15  1  0
 14 16  1  0
 14 17  1  0
  8 10  1  0
 15 16  2  0
M  END
>  <MolRegNo>  (1) 
251478

>  <m>  (1) 
=

>  <Value>  (1) 
21400

>  <Unit>  (1) 
nM

>  <Type>  (1) 
IC50

>  <pValue>  (1) 
4.67

>  <Ligand Efficiency>  (1) 
0

>  <Binding Efficiency>  (1) 
0

>  <Surface Efficiency>  (1) 
0

>  <Assay Index>  (1) 
51627

>  <Assay Category>  (1) 


>  <Assay Organism>  (1) 


>  <Target ID>  (1) 
11365

>  <Target Name>  (1) 
Cytochrome P450 2D6

>  <Target Organism>  (1) 
Homo sapiens

>  <Target Description>  (1) 
Target is a single protein chain

>  <Sequence Accession>  (1) 
P10635

>  <Reference>  (1) 
J Med Chem 46 (25), 5416-5427 (2003)

>  <Pubmed ID>  (1) 
14640550

>  <DOI>  (1) 
10.1021/jm020557k

$$$$
