4wnv_ligand_259
     RDKit          2D

 29 32  0  0  0  0  0  0  0  0999 V2000
    0.0000   -0.0000   -0.0000 O   0  0  0  0  0  0  0  0  0  0  0  0
   -1.3019   -0.7456   -0.0000 C   0  0  0  0  0  0  0  0  0  0  0  0
    1.2901   -0.7220   -0.0000 C   0  0  0  0  0  0  0  0  0  0  0  0
   -1.3019   -2.2369   -0.0000 C   0  0  0  0  0  0  0  0  0  0  0  0
   -2.6275   -0.0000   -0.0000 C   0  0  0  0  0  0  0  0  0  0  0  0
    1.2782   -2.2132   -0.0000 C   0  0  0  0  0  0  0  0  0  0  0  0
    2.5565    0.0473   -0.0000 C   0  0  0  0  0  0  0  0  0  0  0  0
   -2.6038   -2.9826   -0.0000 C   0  0  0  0  0  0  0  0  0  0  0  0
   -3.9294   -0.7575   -0.0000 C   0  0  0  0  0  0  0  0  0  0  0  0
    2.5683   -2.9352   -0.0000 C   0  0  0  0  0  0  0  0  0  0  0  0
    3.8465   -0.6865   -0.0000 C   0  0  0  0  0  0  0  0  0  0  0  0
   -3.9294   -2.2251   -0.0000 C   0  0  0  0  0  0  0  0  0  0  0  0
    3.8465   -2.1659   -0.0000 C   0  0  0  0  0  0  0  0  0  0  0  0
   -5.2313   -2.9707   -0.0000 O   0  0  0  0  0  0  0  0  0  0  0  0
   -6.5450   -2.2251   -0.0000 C   0  0  0  0  0  0  0  0  0  0  0  0
   -7.8470   -2.9707   -0.0000 C   0  0  0  0  0  0  0  0  0  0  0  0
   -9.1607   -2.2132   -0.0000 C   0  0  0  0  0  0  0  0  0  0  0  0
  -10.4744   -2.9470   -0.0000 N   0  0  0  0  0  0  0  0  0  0  0  0
  -10.4863   -4.4383   -0.0000 C   0  0  0  0  0  0  0  0  0  0  0  0
  -11.7764   -2.1896   -0.0000 C   0  0  0  0  0  0  0  0  0  0  0  0
  -11.7882   -5.1721   -0.0000 C   0  0  0  0  0  0  0  0  0  0  0  0
  -13.0901   -2.9234   -0.0000 C   0  0  0  0  0  0  0  0  0  0  0  0
  -13.1019   -4.4147   -0.0000 C   0  0  0  0  0  0  0  0  0  0  0  0
  -14.4157   -5.1485   -0.0000 C   0  0  0  0  0  0  0  0  0  0  0  0
  -15.7176   -4.3910   -0.0000 C   0  0  0  0  0  0  0  0  0  0  0  0
  -17.1023   -4.9946   -0.0000 N   0  0  0  0  0  0  0  0  0  0  0  0
  -15.8951   -2.8879   -0.0000 C   0  0  0  0  0  0  0  0  0  0  0  0
  -18.1202   -3.8584   -0.0000 C   0  0  0  0  0  0  0  0  0  0  0  0
  -17.3746   -2.5683   -0.0000 N   0  0  0  0  0  0  0  0  0  0  0  0
  1  2  1  0
  1  3  1  0
  2  4  2  0
  2  5  1  0
  3  6  1  0
  3  7  1  0
  4  8  1  0
  5  9  2  0
  6 10  1  0
  7 11  1  0
  8 12  2  0
 10 13  1  0
 12 14  1  0
 14 15  1  0
 15 16  1  0
 16 17  1  0
 17 18  1  0
 18 19  1  0
 18 20  1  0
 19 21  1  0
 20 22  1  0
 21 23  1  0
 23 24  1  0
 24 25  1  0
 25 26  1  0
 25 27  2  0
 26 28  2  0
 27 29  1  0
  9 12  1  0
 11 13  1  0
 22 23  1  0
 28 29  1  0
M  END
>  <MolRegNo>  (1) 
339414

>  <m>  (1) 
=

>  <Value>  (1) 
300

>  <Unit>  (1) 
nM

>  <Type>  (1) 
IC50

>  <pValue>  (1) 
6.52

>  <Ligand Efficiency>  (1) 
0

>  <Binding Efficiency>  (1) 
0

>  <Surface Efficiency>  (1) 
0

>  <Assay Index>  (1) 
257619

>  <Assay Category>  (1) 


>  <Assay Organism>  (1) 
Homo sapiens

>  <Target ID>  (1) 
11365

>  <Target Name>  (1) 
Cytochrome P450 2D6

>  <Target Organism>  (1) 
Homo sapiens

>  <Target Description>  (1) 
Target is a single protein chain

>  <Sequence Accession>  (1) 
P10635

>  <Reference>  (1) 
Bioorg Med Chem Lett 16 (4), 989-994 (2006)

>  <Pubmed ID>  (1) 
16297617

>  <DOI>  (1) 
10.1016/j.bmcl.2005.10.087

$$$$
