4wnv_ligand_622
     RDKit          2D

 26 29  0  0  0  0  0  0  0  0999 V2000
    0.0000   -0.0000   -0.0000 O   0  0  0  0  0  0  0  0  0  0  0  0
   -0.7546   -1.2852   -0.0000 C   0  0  0  0  0  0  0  0  0  0  0  0
   -0.0236   -2.5586   -0.0000 N   0  0  0  0  0  0  0  0  0  0  0  0
   -2.2639   -1.2734   -0.0000 C   0  0  0  0  0  0  0  0  0  0  0  0
   -0.7782   -3.8439   -0.0000 C   0  0  0  0  0  0  0  0  0  0  0  0
    1.4503   -2.5469   -0.0000 C   0  0  0  0  0  0  0  0  0  0  0  0
   -3.1600   -2.4761   -0.0000 N   0  0  0  0  0  0  0  0  0  0  0  0
   -3.1600   -0.0472   -0.0000 C   0  0  0  0  0  0  0  0  0  0  0  0
   -4.5985   -2.0045   -0.0000 C   0  0  0  0  0  0  0  0  0  0  0  0
   -4.5985   -0.4952   -0.0000 C   0  0  0  0  0  0  0  0  0  0  0  0
   -5.8955   -2.7355   -0.0000 C   0  0  0  0  0  0  0  0  0  0  0  0
   -5.8955    0.2712   -0.0000 C   0  0  0  0  0  0  0  0  0  0  0  0
   -7.2043   -1.9809   -0.0000 C   0  0  0  0  0  0  0  0  0  0  0  0
   -7.1925   -0.4834   -0.0000 C   0  0  0  0  0  0  0  0  0  0  0  0
   -8.5013    0.2712   -0.0000 C   0  0  0  0  0  0  0  0  0  0  0  0
   -9.8808   -0.3301   -0.0000 C   0  0  0  0  0  0  0  0  0  0  0  0
   -8.6664    1.7686   -0.0000 C   0  0  0  0  0  0  0  0  0  0  0  0
   -7.2279    1.0376   -0.0000 C   0  0  0  0  0  0  0  0  0  0  0  0
  -10.8949    0.7900   -0.0000 N   0  0  0  0  0  0  0  0  0  0  0  0
  -10.1402    2.0870   -0.0000 C   0  0  0  0  0  0  0  0  0  0  0  0
   -7.2515    2.5351   -0.0000 C   0  0  0  0  0  0  0  0  0  0  0  0
   -5.9780    3.3015   -0.0000 C   0  0  0  0  0  0  0  0  0  0  0  0
   -8.5603    3.2779   -0.0000 C   0  0  0  0  0  0  0  0  0  0  0  0
   -6.0016    4.7989   -0.0000 C   0  0  0  0  0  0  0  0  0  0  0  0
   -8.5838    4.7753   -0.0000 C   0  0  0  0  0  0  0  0  0  0  0  0
   -7.3104    5.5536   -0.0000 C   0  0  0  0  0  0  0  0  0  0  0  0
  1  2  2  0
  2  3  1  0
  2  4  1  0
  3  5  1  0
  3  6  1  0
  4  7  1  0
  4  8  2  0
  7  9  1  0
  8 10  1  0
  9 11  2  0
 10 12  2  0
 11 13  1  0
 12 14  1  0
 14 15  1  0
 15 16  1  0
 15 17  1  0
 15 18  1  0
 16 19  1  0
 17 20  1  0
 18 21  1  0
 21 22  2  0
 21 23  1  0
 22 24  1  0
 23 25  2  0
 24 26  2  0
  9 10  1  0
 13 14  2  0
 19 20  1  0
 25 26  1  0
M  END
>  <MolRegNo>  (1) 
515308

>  <m>  (1) 
=

>  <Value>  (1) 
2900

>  <Unit>  (1) 
nM

>  <Type>  (1) 
IC50

>  <pValue>  (1) 
5.54

>  <Ligand Efficiency>  (1) 
0

>  <Binding Efficiency>  (1) 
0

>  <Surface Efficiency>  (1) 
0

>  <Assay Index>  (1) 
342264

>  <Assay Category>  (1) 


>  <Assay Organism>  (1) 


>  <Target ID>  (1) 
11365

>  <Target Name>  (1) 
Cytochrome P450 2D6

>  <Target Organism>  (1) 
Homo sapiens

>  <Target Description>  (1) 
Target is a single protein chain

>  <Sequence Accession>  (1) 
P10635

>  <Reference>  (1) 
Bioorg Med Chem Lett 18 (23), 6062-6066 (2008)

>  <Pubmed ID>  (1) 
18954985

>  <DOI>  (1) 
10.1016/j.bmcl.2008.10.025

$$$$
