4wnv_ligand_471
     RDKit          2D

 35 38  0  0  0  0  0  0  0  0999 V2000
    0.0000   -0.0000   -0.0000 S   0  0  0  0  0  0  0  0  0  0  0  0
   -1.3775   -0.5887   -0.0000 C   0  0  0  0  0  0  0  0  0  0  0  0
    0.9772   -1.1067   -0.0000 C   0  0  0  0  0  0  0  0  0  0  0  0
   -1.2480   -2.0603   -0.0000 N   0  0  0  0  0  0  0  0  0  0  0  0
   -2.6843    0.1766   -0.0000 N   0  0  0  0  0  0  0  0  0  0  0  0
    0.2119   -2.3899   -0.0000 C   0  0  0  0  0  0  0  0  0  0  0  0
    2.4488   -0.9419   -0.0000 C   0  0  0  0  0  0  0  0  0  0  0  0
   -3.9911   -0.5533   -0.0000 C   0  0  0  0  0  0  0  0  0  0  0  0
    0.8006   -3.7439   -0.0000 C   0  0  0  0  0  0  0  0  0  0  0  0
    3.0492    0.4356   -0.0000 O   0  0  0  0  0  0  0  0  0  0  0  0
    3.3083   -2.1427   -0.0000 C   0  0  0  0  0  0  0  0  0  0  0  0
   -4.0146   -2.0368   -0.0000 O   0  0  0  0  0  0  0  0  0  0  0  0
   -5.2979    0.2119   -0.0000 N   0  0  0  0  0  0  0  0  0  0  0  0
   -5.2979    1.7189   -0.0000 C   0  0  0  0  0  0  0  0  0  0  0  0
   -6.6047    2.4959   -0.0000 C   0  0  0  0  0  0  0  0  0  0  0  0
   -4.0146    2.4724   -0.0000 C   0  0  0  0  0  0  0  0  0  0  0  0
   -6.6165    3.9911   -0.0000 C   0  0  0  0  0  0  0  0  0  0  0  0
   -7.9115    1.7660   -0.0000 C   0  0  0  0  0  0  0  0  0  0  0  0
   -4.0146    3.9793   -0.0000 N   0  0  0  0  0  0  0  0  0  0  0  0
   -5.3215    4.7446   -0.0000 C   0  0  0  0  0  0  0  0  0  0  0  0
   -9.2184    2.5312   -0.0000 N   0  0  0  0  0  0  0  0  0  0  0  0
   -2.7314    4.7328   -0.0000 C   0  0  0  0  0  0  0  0  0  0  0  0
  -10.5252    1.8013   -0.0000 C   0  0  0  0  0  0  0  0  0  0  0  0
   -9.2301    4.0382   -0.0000 C   0  0  0  0  0  0  0  0  0  0  0  0
  -11.8320    2.5548   -0.0000 C   0  0  0  0  0  0  0  0  0  0  0  0
  -10.5370    4.8034   -0.0000 C   0  0  0  0  0  0  0  0  0  0  0  0
  -11.8438    4.0617   -0.0000 C   0  0  0  0  0  0  0  0  0  0  0  0
  -13.1388    1.8131   -0.0000 C   0  0  0  0  0  0  0  0  0  0  0  0
  -14.4456    2.5665   -0.0000 C   0  0  0  0  0  0  0  0  0  0  0  0
  -14.4574    4.0735   -0.0000 C   0  0  0  0  0  0  0  0  0  0  0  0
  -15.7407    1.8248   -0.0000 C   0  0  0  0  0  0  0  0  0  0  0  0
  -15.7642    4.8270   -0.0000 C   0  0  0  0  0  0  0  0  0  0  0  0
  -17.0475    2.5783   -0.0000 C   0  0  0  0  0  0  0  0  0  0  0  0
  -17.0710    4.0853   -0.0000 C   0  0  0  0  0  0  0  0  0  0  0  0
  -18.3779    4.8388   -0.0000 F   0  0  0  0  0  0  0  0  0  0  0  0
  1  2  1  0
  1  3  1  0
  2  4  2  0
  2  5  1  0
  3  6  2  0
  3  7  1  0
  5  8  1  0
  6  9  1  0
  7 10  2  0
  7 11  1  0
  8 12  2  0
  8 13  1  0
 14 13  1  6
 14 15  1  0
 14 16  1  0
 15 17  1  0
 15 18  1  1
 16 19  1  0
 17 20  1  0
 18 21  1  0
 19 22  1  0
 21 23  1  0
 21 24  1  0
 23 25  1  0
 24 26  1  0
 25 27  1  0
 25 28  1  1
 28 29  1  0
 29 30  2  0
 29 31  1  0
 30 32  1  0
 31 33  2  0
 32 34  2  0
 34 35  1  0
  4  6  1  0
 19 20  1  0
 26 27  1  0
 33 34  1  0
M  END
>  <MolRegNo>  (1) 
421533

>  <m>  (1) 
=

>  <Value>  (1) 
7400

>  <Unit>  (1) 
nM

>  <Type>  (1) 
IC50

>  <pValue>  (1) 
5.13

>  <Ligand Efficiency>  (1) 
0

>  <Binding Efficiency>  (1) 
0

>  <Surface Efficiency>  (1) 
0

>  <Assay Index>  (1) 
307824

>  <Assay Category>  (1) 


>  <Assay Organism>  (1) 
Homo sapiens

>  <Target ID>  (1) 
11365

>  <Target Name>  (1) 
Cytochrome P450 2D6

>  <Target Organism>  (1) 
Homo sapiens

>  <Target Description>  (1) 
Target is a single protein chain

>  <Sequence Accession>  (1) 
P10635

>  <Reference>  (1) 
Bioorg Med Chem Lett 17 (11), 2992-2997 (2007)

>  <Pubmed ID>  (1) 
17418570

>  <DOI>  (1) 
10.1016/j.bmcl.2007.03.065

$$$$
