4wnv_ligand_905
     RDKit          2D

 32 34  0  0  0  0  0  0  0  0999 V2000
    0.0000   -0.0000   -0.0000 Cl  0  0  0  0  0  0  0  0  0  0  0  0
   -0.0119    1.5093   -0.0000 C   0  0  0  0  0  0  0  0  0  0  0  0
   -1.3191    2.2699   -0.0000 C   0  0  0  0  0  0  0  0  0  0  0  0
    1.2835    2.2699   -0.0000 C   0  0  0  0  0  0  0  0  0  0  0  0
   -2.6264    1.5330   -0.0000 C   0  0  0  0  0  0  0  0  0  0  0  0
   -1.3310    3.7910   -0.0000 C   0  0  0  0  0  0  0  0  0  0  0  0
    1.2716    3.7910   -0.0000 C   0  0  0  0  0  0  0  0  0  0  0  0
   -3.9336    0.7962   -0.0000 N   0  0  0  0  0  0  0  0  0  0  0  0
   -0.0475    4.5516   -0.0000 C   0  0  0  0  0  0  0  0  0  0  0  0
    2.5551    4.5516   -0.0000 N   0  0  0  0  0  0  0  0  0  0  0  0
    3.8386    3.8148   -0.0000 C   0  0  0  0  0  0  0  0  0  0  0  0
    2.5432    6.0609   -0.0000 C   0  0  0  0  0  0  0  0  0  0  0  0
    3.9931    2.3293   -0.0000 C   0  0  0  0  0  0  0  0  0  0  0  0
    5.2052    4.4328   -0.0000 C   0  0  0  0  0  0  0  0  0  0  0  0
    3.8267    6.8215   -0.0000 C   0  0  0  0  0  0  0  0  0  0  0  0
    5.4429    2.0322   -0.0000 N   0  0  0  0  0  0  0  0  0  0  0  0
    6.2035    3.3394   -0.0000 C   0  0  0  0  0  0  0  0  0  0  0  0
    3.8029    8.3189   -0.0000 C   0  0  0  0  0  0  0  0  0  0  0  0
    5.1102    6.0847   -0.0000 C   0  0  0  0  0  0  0  0  0  0  0  0
    6.0371    0.6774   -0.0000 S   0  0  0  0  0  0  0  0  0  0  0  0
    5.0745    9.0913   -0.0000 C   0  0  0  0  0  0  0  0  0  0  0  0
    2.4838    9.0676   -0.0000 C   0  0  0  0  0  0  0  0  0  0  0  0
    6.3936    6.8452   -0.0000 C   0  0  0  0  0  0  0  0  0  0  0  0
    5.2647   -0.6061   -0.0000 O   0  0  0  0  0  0  0  0  0  0  0  0
    4.5278    0.7012   -0.0000 O   0  0  0  0  0  0  0  0  0  0  0  0
    7.5226    0.5348   -0.0000 C   0  0  0  0  0  0  0  0  0  0  0  0
    6.3699    8.3545   -0.0000 C   0  0  0  0  0  0  0  0  0  0  0  0
    2.4600   10.5769   -0.0000 F   0  0  0  0  0  0  0  0  0  0  0  0
    1.1765    8.3189   -0.0000 F   0  0  0  0  0  0  0  0  0  0  0  0
    1.1646    9.8400   -0.0000 F   0  0  0  0  0  0  0  0  0  0  0  0
    8.3902    1.7588   -0.0000 C   0  0  0  0  0  0  0  0  0  0  0  0
    9.8638    1.6162   -0.0000 C   0  0  0  0  0  0  0  0  0  0  0  0
  1  2  1  0
  2  3  2  0
  2  4  1  0
  3  5  1  0
  3  6  1  0
  4  7  2  0
  5  8  3  0
  6  9  2  0
  7 10  1  0
 11 10  1  1
 10 12  1  0
 11 13  1  0
 11 14  1  0
 12 15  1  0
 13 16  1  0
 14 17  1  0
 15 18  2  0
 15 19  1  0
 16 20  1  0
 18 21  1  0
 18 22  1  0
 19 23  2  0
 20 24  2  0
 20 25  2  0
 20 26  1  0
 21 27  2  0
 22 28  1  0
 22 29  1  0
 22 30  1  0
 26 31  1  0
 31 32  1  0
  7  9  1  0
 16 17  1  0
 23 27  1  0
M  END
>  <MolRegNo>  (1) 
590171

>  <m>  (1) 
=

>  <Value>  (1) 
9000

>  <Unit>  (1) 
nM

>  <Type>  (1) 
IC50

>  <pValue>  (1) 
5.05

>  <Ligand Efficiency>  (1) 
0

>  <Binding Efficiency>  (1) 
0

>  <Surface Efficiency>  (1) 
0

>  <Assay Index>  (1) 
452357

>  <Assay Category>  (1) 


>  <Assay Organism>  (1) 


>  <Target ID>  (1) 
11365

>  <Target Name>  (1) 
Cytochrome P450 2D6

>  <Target Organism>  (1) 
Homo sapiens

>  <Target Description>  (1) 
Target is a single protein chain

>  <Sequence Accession>  (1) 
P10635

>  <Reference>  (1) 
Bioorg Med Chem Lett 20 (1), 371-374 (2010)

>  <Pubmed ID>  (1) 
19926282

>  <DOI>  (1) 
10.1016/j.bmcl.2009.10.092

$$$$
