4wnv_ligand_366
     RDKit          2D

 39 44  0  0  1  0  0  0  0  0999 V2000
    0.0000   -0.0000   -0.0000 Cl  0  0  0  0  0  0  0  0  0  0  0  0
    1.4985    0.0238   -0.0000 C   0  0  0  0  0  0  0  0  0  0  0  0
    2.2358    1.3439   -0.0000 C   0  0  0  0  0  0  0  0  0  0  0  0
    2.2477   -1.2725   -0.0000 C   0  0  0  0  0  0  0  0  0  0  0  0
    3.7224    1.3558   -0.0000 C   0  0  0  0  0  0  0  0  0  0  0  0
    3.7343   -1.2487   -0.0000 C   0  0  0  0  0  0  0  0  0  0  0  0
    4.4598    0.0714   -0.0000 C   0  0  0  0  0  0  0  0  0  0  0  0
    5.9583    0.0951   -0.0000 C   0  0  0  0  0  0  0  0  0  0  0  0
    6.8264    1.3320   -0.0000 S   0  0  0  0  0  0  0  0  0  0  0  0
    6.8383   -1.1060   -0.0000 C   0  0  0  0  0  0  0  0  0  0  0  0
    8.2417    0.8801   -0.0000 C   0  0  0  0  0  0  0  0  0  0  0  0
    8.2536   -0.6184   -0.0000 C   0  0  0  0  0  0  0  0  0  0  0  0
    9.5380    1.6531   -0.0000 C   0  0  0  0  0  0  0  0  0  0  0  0
    9.5499   -1.3558   -0.0000 N   0  0  0  0  0  0  0  0  0  0  0  0
    9.5261    3.1754   -0.0000 O   0  0  0  0  0  0  0  0  0  0  0  0
   10.8343    0.9157   -0.0000 N   0  0  0  0  0  0  0  0  0  0  0  0
   10.8462   -0.5946   -0.0000 C   0  0  0  0  0  0  0  0  0  0  0  0
   12.1187    1.6888   -0.0000 C   0  0  0  0  0  0  0  0  0  0  0  0
   13.5339    1.2368   -0.0000 C   0  0  0  0  0  0  0  0  0  0  0  0
   12.1068    3.2110   -0.0000 C   0  0  0  0  0  0  0  0  0  0  0  0
   14.4021    2.4618   -0.0000 N   0  0  0  0  0  0  0  0  0  0  0  0
   13.5220    3.6867   -0.0000 C   0  0  0  0  0  0  0  0  0  0  0  0
   15.9006    2.4737   -0.0000 C   0  0  0  0  0  0  0  0  0  0  0  0
   16.6379    1.1893   -0.0000 O   0  0  0  0  0  0  0  0  0  0  0  0
   16.6379    3.7938   -0.0000 N   0  0  0  0  0  0  0  0  0  0  0  0
   18.1364    3.8057   -0.0000 C   0  0  0  0  0  0  0  0  0  0  0  0
   15.8768    5.1020   -0.0000 C   0  0  0  0  0  0  0  0  0  0  0  0
   19.0046    5.0425   -0.0000 C   0  0  0  0  0  0  0  0  0  0  0  0
   19.0165    2.6045   -0.0000 C   0  0  0  0  0  0  0  0  0  0  0  0
   20.4198    4.5906   -0.0000 N   0  0  0  0  0  0  0  0  0  0  0  0
   20.4317    3.0802   -0.0000 C   0  0  0  0  0  0  0  0  0  0  0  0
   21.6210    5.4944   -0.0000 C   0  0  0  0  0  0  0  0  0  0  0  0
   22.9173    4.7690   -0.0000 C   0  0  0  0  0  0  0  0  0  0  0  0
   21.5734    7.0048   -0.0000 C   0  0  0  0  0  0  0  0  0  0  0  0
   24.1898    5.5420   -0.0000 C   0  0  0  0  0  0  0  0  0  0  0  0
   22.8578    7.7897   -0.0000 C   0  0  0  0  0  0  0  0  0  0  0  0
   24.1660    7.0643   -0.0000 C   0  0  0  0  0  0  0  0  0  0  0  0
   24.1304    8.5866   -0.0000 C   0  0  0  0  0  0  0  0  0  0  0  0
   25.4624    6.3388   -0.0000 C   0  0  0  0  0  0  0  0  0  0  0  0
  1  2  1  0
  2  3  2  0
  2  4  1  0
  3  5  1  0
  4  6  2  0
  5  7  2  0
  7  8  1  0
  8  9  1  0
  8 10  2  0
  9 11  1  0
 10 12  1  0
 11 13  1  0
 12 14  1  0
 13 15  2  0
 13 16  1  0
 14 17  2  0
 18 16  1  1
 18 19  1  0
 18 20  1  0
 19 21  1  0
 20 22  1  0
 21 23  1  0
 23 24  2  0
 23 25  1  0
 26 25  1  6
 25 27  1  0
 26 28  1  0
 26 29  1  0
 28 30  1  0
 29 31  1  0
 30 32  1  0
 32 33  1  0
 32 34  1  0
 33 35  1  0
 34 36  1  0
 35 37  1  0
 37 38  1  0
 37 39  1  0
  6  7  1  0
 11 12  2  0
 16 17  1  0
 21 22  1  0
 30 31  1  0
 36 37  1  0
M  END
>  <MolRegNo>  (1) 
394155

>  <m>  (1) 
=

>  <Value>  (1) 
3400

>  <Unit>  (1) 
nM

>  <Type>  (1) 
IC50

>  <pValue>  (1) 
5.47

>  <Ligand Efficiency>  (1) 
0

>  <Binding Efficiency>  (1) 
0

>  <Surface Efficiency>  (1) 
0

>  <Assay Index>  (1) 
291576

>  <Assay Category>  (1) 


>  <Assay Organism>  (1) 


>  <Target ID>  (1) 
11365

>  <Target Name>  (1) 
Cytochrome P450 2D6

>  <Target Organism>  (1) 
Homo sapiens

>  <Target Description>  (1) 
Target is a single protein chain

>  <Sequence Accession>  (1) 
P10635

>  <Reference>  (1) 
Bioorg Med Chem Lett 17 (9), 2535-2539 (2007)

>  <Pubmed ID>  (1) 
17329101

>  <DOI>  (1) 
10.1016/j.bmcl.2007.02.012

$$$$
