4wnv_ligand_682
     RDKit          2D

 16 18  0  0  0  0  0  0  0  0999 V2000
    0.0000   -0.0000   -0.0000 O   0  0  0  0  0  0  0  0  0  0  0  0
   -0.0236    1.5104   -0.0000 N   0  0  0  0  0  0  0  0  0  0  0  0
   -1.4278   -0.4602   -0.0000 C   0  0  0  0  0  0  0  0  0  0  0  0
   -1.4632    1.9705   -0.0000 C   0  0  0  0  0  0  0  0  0  0  0  0
   -2.3245    0.7552   -0.0000 N   0  0  0  0  0  0  0  0  0  0  0  0
   -1.8879   -1.8761   -0.0000 C   0  0  0  0  0  0  0  0  0  0  0  0
   -1.9469    3.3983   -0.0000 C   0  0  0  0  0  0  0  0  0  0  0  0
   -1.0148   -3.0679   -0.0000 N   0  0  0  0  0  0  0  0  0  0  0  0
   -3.3275   -2.3363   -0.0000 C   0  0  0  0  0  0  0  0  0  0  0  0
   -0.9676    4.5311   -0.0000 N   0  0  0  0  0  0  0  0  0  0  0  0
   -1.8997   -4.2715   -0.0000 N   0  0  0  0  0  0  0  0  0  0  0  0
   -3.3275   -3.8231   -0.0000 C   0  0  0  0  0  0  0  0  0  0  0  0
   -4.6373   -1.5812   -0.0000 C   0  0  0  0  0  0  0  0  0  0  0  0
   -4.6373   -4.5665   -0.0000 C   0  0  0  0  0  0  0  0  0  0  0  0
   -5.9352   -2.3127   -0.0000 C   0  0  0  0  0  0  0  0  0  0  0  0
   -5.9470   -3.8113   -0.0000 C   0  0  0  0  0  0  0  0  0  0  0  0
  1  2  1  0
  1  3  1  0
  2  4  2  0
  3  5  2  0
  3  6  1  0
  4  7  1  0
  6  8  2  0
  6  9  1  0
  7 10  1  0
  8 11  1  0
  9 12  2  0
  9 13  1  0
 12 14  1  0
 13 15  2  0
 14 16  2  0
  4  5  1  0
 11 12  1  0
 15 16  1  0
M  END
>  <MolRegNo>  (1) 
480905

>  <m>  (1) 
=

>  <Value>  (1) 
1000

>  <Unit>  (1) 
nM

>  <Type>  (1) 
IC50

>  <pValue>  (1) 
6

>  <Ligand Efficiency>  (1) 
0

>  <Binding Efficiency>  (1) 
0

>  <Surface Efficiency>  (1) 
0

>  <Assay Index>  (1) 
349782

>  <Assay Category>  (1) 


>  <Assay Organism>  (1) 
Homo sapiens

>  <Target ID>  (1) 
11365

>  <Target Name>  (1) 
Cytochrome P450 2D6

>  <Target Organism>  (1) 
Homo sapiens

>  <Target Description>  (1) 
Target is a single protein chain

>  <Sequence Accession>  (1) 
P10635

>  <Reference>  (1) 
J Med Chem 52 (9), 2694-2707 (2009)

>  <Pubmed ID>  (1) 
19341281

>  <DOI>  (1) 
10.1021/jm801180p

$$$$
