4wnv_ligand_639
     RDKit          2D

 39 43  0  0  0  0  0  0  0  0999 V2000
    0.0000   -0.0000   -0.0000 Cl  0  0  0  0  0  0  0  0  0  0  0  0
   -1.3064    0.7502   -0.0000 C   0  0  0  0  0  0  0  0  0  0  0  0
   -1.3194    2.2636   -0.0000 C   0  0  0  0  0  0  0  0  0  0  0  0
   -2.6129    0.0129   -0.0000 C   0  0  0  0  0  0  0  0  0  0  0  0
   -0.0388    3.0268   -0.0000 C   0  0  0  0  0  0  0  0  0  0  0  0
   -2.6387    3.0138   -0.0000 C   0  0  0  0  0  0  0  0  0  0  0  0
   -3.9193    0.7761   -0.0000 C   0  0  0  0  0  0  0  0  0  0  0  0
    1.2418    2.3024   -0.0000 O   0  0  0  0  0  0  0  0  0  0  0  0
   -0.0647    4.5272   -0.0000 N   0  0  0  0  0  0  0  0  0  0  0  0
   -3.9322    2.2765   -0.0000 C   0  0  0  0  0  0  0  0  0  0  0  0
   -5.2257    0.0388   -0.0000 N   0  0  0  0  0  0  0  0  0  0  0  0
   -1.2288    5.4585   -0.0000 C   0  0  0  0  0  0  0  0  0  0  0  0
    1.3840    4.8894   -0.0000 C   0  0  0  0  0  0  0  0  0  0  0  0
   -6.6097    0.6467   -0.0000 N   0  0  0  0  0  0  0  0  0  0  0  0
   -5.3939   -1.4358   -0.0000 C   0  0  0  0  0  0  0  0  0  0  0  0
   -1.2547    6.9719   -0.0000 C   0  0  0  0  0  0  0  0  0  0  0  0
   -2.5223    4.7083   -0.0000 C   0  0  0  0  0  0  0  0  0  0  0  0
    2.0049    6.2605   -0.0000 C   0  0  0  0  0  0  0  0  0  0  0  0
   -7.6187   -0.4527   -0.0000 C   0  0  0  0  0  0  0  0  0  0  0  0
   -6.8684   -1.7333   -0.0000 C   0  0  0  0  0  0  0  0  0  0  0  0
   -0.1164    7.9291   -0.0000 C   0  0  0  0  0  0  0  0  0  0  0  0
   -2.5741    7.7222   -0.0000 C   0  0  0  0  0  0  0  0  0  0  0  0
   -3.8417    5.4456   -0.0000 C   0  0  0  0  0  0  0  0  0  0  0  0
    1.2676    7.6704   -0.0000 C   0  0  0  0  0  0  0  0  0  0  0  0
   -9.1191   -0.2846   -0.0000 C   0  0  0  0  0  0  0  0  0  0  0  0
   -0.4657    9.3908   -0.0000 C   0  0  0  0  0  0  0  0  0  0  0  0
   -3.8805    6.9719   -0.0000 C   0  0  0  0  0  0  0  0  0  0  0  0
    1.2418    9.3261   -0.0000 F   0  0  0  0  0  0  0  0  0  0  0  0
    2.7163    7.6833   -0.0000 F   0  0  0  0  0  0  0  0  0  0  0  0
    0.2716   10.6972   -0.0000 C   0  0  0  0  0  0  0  0  0  0  0  0
   -0.4915   12.0036   -0.0000 O   0  0  0  0  0  0  0  0  0  0  0  0
    1.7462   10.7101   -0.0000 N   0  0  0  0  0  0  0  0  0  0  0  0
    2.4835   12.0165   -0.0000 C   0  0  0  0  0  0  0  0  0  0  0  0
    3.9581   12.0295   -0.0000 C   0  0  0  0  0  0  0  0  0  0  0  0
    4.6954   10.7489   -0.0000 N   0  0  0  0  0  0  0  0  0  0  0  0
    4.6824   13.3230   -0.0000 C   0  0  0  0  0  0  0  0  0  0  0  0
    6.1700   10.7619   -0.0000 C   0  0  0  0  0  0  0  0  0  0  0  0
    6.1570   13.3488   -0.0000 C   0  0  0  0  0  0  0  0  0  0  0  0
    6.9073   12.0683   -0.0000 C   0  0  0  0  0  0  0  0  0  0  0  0
  1  2  1  0
  2  3  2  0
  2  4  1  0
  3  5  1  0
  3  6  1  0
  4  7  2  0
  5  8  2  0
  5  9  1  0
  6 10  2  0
  7 11  1  0
  9 12  1  0
  9 13  1  0
 11 14  1  0
 11 15  1  0
 12 16  2  0
 12 17  1  0
 13 18  1  0
 14 19  2  0
 15 20  2  0
 16 21  1  0
 16 22  1  0
 17 23  2  0
 18 24  1  0
 19 25  1  0
 21 26  2  0
 22 27  2  0
 24 28  1  0
 24 29  1  0
 26 30  1  0
 30 31  2  0
 30 32  1  0
 32 33  1  0
 33 34  1  0
 34 35  2  0
 34 36  1  0
 35 37  1  0
 36 38  2  0
 37 39  2  0
  7 10  1  0
 19 20  1  0
 21 24  1  0
 23 27  1  0
 38 39  1  0
M  END
>  <MolRegNo>  (1) 
499595

>  <m>  (1) 
=

>  <Value>  (1) 
14000

>  <Unit>  (1) 
nM

>  <Type>  (1) 
IC50

>  <pValue>  (1) 
4.85

>  <Ligand Efficiency>  (1) 
0

>  <Binding Efficiency>  (1) 
0

>  <Surface Efficiency>  (1) 
0

>  <Assay Index>  (1) 
411941

>  <Assay Category>  (1) 


>  <Assay Organism>  (1) 


>  <Target ID>  (1) 
11365

>  <Target Name>  (1) 
Cytochrome P450 2D6

>  <Target Organism>  (1) 
Homo sapiens

>  <Target Description>  (1) 
Target is a single protein chain

>  <Sequence Accession>  (1) 
P10635

>  <Reference>  (1) 
Bioorg Med Chem 17 (8), 3130-3141 (2009)

>  <Pubmed ID>  (1) 
19321349

>  <DOI>  (1) 
10.1016/j.bmc.2009.03.001

$$$$
