4wnv_ligand_527
     RDKit          2D

 25 27  0  0  0  0  0  0  0  0999 V2000
    0.0000   -0.0000   -0.0000 O   0  0  0  0  0  0  0  0  0  0  0  0
   -1.3117    0.7632   -0.0000 C   0  0  0  0  0  0  0  0  0  0  0  0
   -0.0119   -1.4906   -0.0000 C   0  0  0  0  0  0  0  0  0  0  0  0
   -1.3236    2.2776   -0.0000 C   0  0  0  0  0  0  0  0  0  0  0  0
   -2.6115    0.0119   -0.0000 C   0  0  0  0  0  0  0  0  0  0  0  0
    1.2759   -2.2299   -0.0000 C   0  0  0  0  0  0  0  0  0  0  0  0
   -1.3236   -2.2299   -0.0000 C   0  0  0  0  0  0  0  0  0  0  0  0
   -2.6353    3.0408   -0.0000 C   0  0  0  0  0  0  0  0  0  0  0  0
   -0.0358    3.0408   -0.0000 C   0  0  0  0  0  0  0  0  0  0  0  0
   -3.9232    0.7632   -0.0000 C   0  0  0  0  0  0  0  0  0  0  0  0
    2.5638   -1.4667   -0.0000 O   0  0  0  0  0  0  0  0  0  0  0  0
    1.2640   -3.7324   -0.0000 C   0  0  0  0  0  0  0  0  0  0  0  0
   -1.3355   -3.7324   -0.0000 C   0  0  0  0  0  0  0  0  0  0  0  0
   -3.9470    2.3014   -0.0000 N   0  0  0  0  0  0  0  0  0  0  0  0
    1.2521    2.3014   -0.0000 N   0  0  0  0  0  0  0  0  0  0  0  0
   -5.2349    0.0119   -0.0000 C   0  0  0  0  0  0  0  0  0  0  0  0
    3.8516   -2.2060   -0.0000 C   0  0  0  0  0  0  0  0  0  0  0  0
   -0.0596   -4.4717   -0.0000 C   0  0  0  0  0  0  0  0  0  0  0  0
    2.5399    3.0646   -0.0000 C   0  0  0  0  0  0  0  0  0  0  0  0
    1.2402    0.8109   -0.0000 C   0  0  0  0  0  0  0  0  0  0  0  0
    3.8397   -3.6966   -0.0000 C   0  0  0  0  0  0  0  0  0  0  0  0
    5.1275   -1.4309   -0.0000 C   0  0  0  0  0  0  0  0  0  0  0  0
    5.1275   -4.4359   -0.0000 C   0  0  0  0  0  0  0  0  0  0  0  0
    6.4154   -2.1583   -0.0000 C   0  0  0  0  0  0  0  0  0  0  0  0
    6.4154   -3.6608   -0.0000 C   0  0  0  0  0  0  0  0  0  0  0  0
  1  2  1  0
  1  3  1  0
  2  4  2  0
  2  5  1  0
  3  6  1  0
  3  7  2  0
  4  8  1  0
  4  9  1  0
  5 10  2  0
  6 11  1  0
  6 12  2  0
  7 13  1  0
  8 14  2  0
  9 15  1  0
 10 16  1  0
 11 17  1  0
 12 18  1  0
 15 19  1  0
 15 20  1  0
 17 21  2  0
 17 22  1  0
 21 23  1  0
 22 24  2  0
 23 25  2  0
 10 14  1  0
 13 18  2  0
 24 25  1  0
M  END
>  <MolRegNo>  (1) 
433726

>  <m>  (1) 
=

>  <Value>  (1) 
610

>  <Unit>  (1) 
nM

>  <Type>  (1) 
IC50

>  <pValue>  (1) 
6.21

>  <Ligand Efficiency>  (1) 
0

>  <Binding Efficiency>  (1) 
0

>  <Surface Efficiency>  (1) 
0

>  <Assay Index>  (1) 
322807

>  <Assay Category>  (1) 


>  <Assay Organism>  (1) 


>  <Target ID>  (1) 
11365

>  <Target Name>  (1) 
Cytochrome P450 2D6

>  <Target Organism>  (1) 
Homo sapiens

>  <Target Description>  (1) 
Target is a single protein chain

>  <Sequence Accession>  (1) 
P10635

>  <Reference>  (1) 
Bioorg Med Chem Lett 18 (6), 1795-1798 (2008)

>  <Pubmed ID>  (1) 
18313294

>  <DOI>  (1) 
10.1016/j.bmcl.2008.02.036

$$$$
