4wnv_ligand_477
     RDKit          2D

 30 32  0  0  1  0  0  0  0  0999 V2000
    0.0000   -0.0000   -0.0000 F   0  0  0  0  0  0  0  0  0  0  0  0
    1.4534   -0.4051   -0.0000 C   0  0  0  0  0  0  0  0  0  0  0  0
    1.4415   -1.9061   -0.0000 C   0  0  0  0  0  0  0  0  0  0  0  0
    2.7281    0.3693   -0.0000 C   0  0  0  0  0  0  0  0  0  0  0  0
    2.7401   -2.6328   -0.0000 C   0  0  0  0  0  0  0  0  0  0  0  0
    4.0267   -0.3574   -0.0000 C   0  0  0  0  0  0  0  0  0  0  0  0
    4.0386   -1.8585   -0.0000 C   0  0  0  0  0  0  0  0  0  0  0  0
    5.3133   -2.6090   -0.0000 C   0  0  0  0  0  0  0  0  0  0  0  0
    6.5999   -1.8346   -0.0000 C   0  0  0  0  0  0  0  0  0  0  0  0
    7.8985   -2.5852   -0.0000 C   0  0  0  0  0  0  0  0  0  0  0  0
    6.5880   -0.3217   -0.0000 C   0  0  0  0  0  0  0  0  0  0  0  0
    9.1851   -1.8108   -0.0000 N   0  0  0  0  0  0  0  0  0  0  0  0
    7.8866    0.4527   -0.0000 C   0  0  0  0  0  0  0  0  0  0  0  0
    9.1732   -0.2859   -0.0000 C   0  0  0  0  0  0  0  0  0  0  0  0
   10.4837   -2.5614   -0.0000 C   0  0  0  0  0  0  0  0  0  0  0  0
   11.7822   -1.7870   -0.0000 C   0  0  0  0  0  0  0  0  0  0  0  0
   13.0689   -2.5375   -0.0000 C   0  0  0  0  0  0  0  0  0  0  0  0
   14.3674   -1.7632   -0.0000 N   0  0  0  0  0  0  0  0  0  0  0  0
   15.6540   -2.5137   -0.0000 C   0  0  0  0  0  0  0  0  0  0  0  0
   15.6421   -4.0029   -0.0000 O   0  0  0  0  0  0  0  0  0  0  0  0
   16.9526   -1.7393   -0.0000 N   0  0  0  0  0  0  0  0  0  0  0  0
   18.2511   -2.5018   -0.0000 C   0  0  0  0  0  0  0  0  0  0  0  0
   19.5378   -1.7512   -0.0000 C   0  0  0  0  0  0  0  0  0  0  0  0
   18.2392   -4.0029   -0.0000 C   0  0  0  0  0  0  0  0  0  0  0  0
   20.8363   -2.4780   -0.0000 C   0  0  0  0  0  0  0  0  0  0  0  0
   19.5258   -4.7534   -0.0000 C   0  0  0  0  0  0  0  0  0  0  0  0
   22.1229   -1.7274   -0.0000 C   0  0  0  0  0  0  0  0  0  0  0  0
   20.8244   -3.9790   -0.0000 C   0  0  0  0  0  0  0  0  0  0  0  0
   22.1110   -0.2025   -0.0000 O   0  0  0  0  0  0  0  0  0  0  0  0
   23.4215   -2.4541   -0.0000 C   0  0  0  0  0  0  0  0  0  0  0  0
  1  2  1  0
  2  3  2  0
  2  4  1  0
  3  5  1  0
  4  6  2  0
  5  7  2  0
  7  8  1  0
  9  8  1  6
  9 10  1  0
  9 11  1  0
 10 12  1  0
 11 13  1  0
 12 14  1  0
 12 15  1  0
 15 16  1  0
 16 17  1  0
 17 18  1  0
 18 19  1  0
 19 20  2  0
 19 21  1  0
 21 22  1  0
 22 23  2  0
 22 24  1  0
 23 25  1  0
 24 26  2  0
 25 27  1  0
 25 28  2  0
 27 29  2  0
 27 30  1  0
  6  7  1  0
 13 14  1  0
 26 28  1  0
M  END
>  <MolRegNo>  (1) 
65583

>  <m>  (1) 
=

>  <Value>  (1) 
500

>  <Unit>  (1) 
nM

>  <Type>  (1) 
IC50

>  <pValue>  (1) 
6.3

>  <Ligand Efficiency>  (1) 
0

>  <Binding Efficiency>  (1) 
0

>  <Surface Efficiency>  (1) 
0

>  <Assay Index>  (1) 
314783

>  <Assay Category>  (1) 


>  <Assay Organism>  (1) 


>  <Target ID>  (1) 
11365

>  <Target Name>  (1) 
Cytochrome P450 2D6

>  <Target Organism>  (1) 
Homo sapiens

>  <Target Description>  (1) 
Target is a single protein chain

>  <Sequence Accession>  (1) 
P10635

>  <Reference>  (1) 
Bioorg Med Chem Lett 18 (2), 576-585 (2008)

>  <Pubmed ID>  (1) 
18096386

>  <DOI>  (1) 
10.1016/j.bmcl.2007.11.067

$$$$
