4wnv_ligand_156
     RDKit          2D

 14 14  0  0  0  0  0  0  0  0999 V2000
    0.0000   -0.0000   -0.0000 Cl  0  0  0  0  0  0  0  0  0  0  0  0
   -1.5128    0.0118   -0.0000 C   0  0  0  0  0  0  0  0  0  0  0  0
   -2.2574   -1.2764   -0.0000 C   0  0  0  0  0  0  0  0  0  0  0  0
   -2.2574    1.3000   -0.0000 C   0  0  0  0  0  0  0  0  0  0  0  0
   -3.7701   -1.2646   -0.0000 C   0  0  0  0  0  0  0  0  0  0  0  0
   -3.7701    1.3119   -0.0000 C   0  0  0  0  0  0  0  0  0  0  0  0
   -4.5265    0.0236   -0.0000 C   0  0  0  0  0  0  0  0  0  0  0  0
   -6.0393    0.0355   -0.0000 C   0  0  0  0  0  0  0  0  0  0  0  0
   -6.7957   -1.2291   -0.0000 S   0  0  0  0  0  0  0  0  0  0  0  0
   -8.3085   -1.2173   -0.0000 C   0  0  0  0  0  0  0  0  0  0  0  0
   -9.0649   -2.5174   -0.0000 C   0  0  0  0  0  0  0  0  0  0  0  0
   -8.3203   -3.8056   -0.0000 O   0  0  0  0  0  0  0  0  0  0  0  0
  -10.5777   -2.5055   -0.0000 C   0  0  0  0  0  0  0  0  0  0  0  0
  -11.3341   -3.7938   -0.0000 N   0  0  0  0  0  0  0  0  0  0  0  0
  1  2  1  0
  2  3  2  0
  2  4  1  0
  3  5  1  0
  4  6  2  0
  5  7  2  0
  7  8  1  0
  8  9  1  0
  9 10  1  0
 10 11  1  0
 11 12  1  0
 11 13  1  0
 13 14  1  0
  6  7  1  0
M  END
>  <MolRegNo>  (1) 
314010

>  <m>  (1) 
=

>  <Value>  (1) 
8000

>  <Unit>  (1) 
nM

>  <Type>  (1) 
IC50

>  <pValue>  (1) 
5.1

>  <Ligand Efficiency>  (1) 
0

>  <Binding Efficiency>  (1) 
0

>  <Surface Efficiency>  (1) 
0

>  <Assay Index>  (1) 
237541

>  <Assay Category>  (1) 


>  <Assay Organism>  (1) 


>  <Target ID>  (1) 
11365

>  <Target Name>  (1) 
Cytochrome P450 2D6

>  <Target Organism>  (1) 
Homo sapiens

>  <Target Description>  (1) 
Target is a single protein chain

>  <Sequence Accession>  (1) 
P10635

>  <Reference>  (1) 
J Med Chem 47 (22), 5340-5346 (2004)

>  <Pubmed ID>  (1) 
15481972

>  <DOI>  (1) 
10.1021/jm049934e

$$$$
