4wnv_ligand_387
     RDKit          2D

 43 46  0  0  1  0  0  0  0  0999 V2000
    0.0000   -0.0000   -0.0000 F   0  0  0  0  0  0  0  0  0  0  0  0
   -0.0118    1.5095   -0.0000 C   0  0  0  0  0  0  0  0  0  0  0  0
    1.2854    2.2642   -0.0000 C   0  0  0  0  0  0  0  0  0  0  0  0
   -1.3208    2.2642   -0.0000 C   0  0  0  0  0  0  0  0  0  0  0  0
    1.2736    3.7619   -0.0000 C   0  0  0  0  0  0  0  0  0  0  0  0
   -1.3208    3.7736   -0.0000 C   0  0  0  0  0  0  0  0  0  0  0  0
   -0.0236    4.5284   -0.0000 C   0  0  0  0  0  0  0  0  0  0  0  0
    2.5472    4.5284   -0.0000 C   0  0  0  0  0  0  0  0  0  0  0  0
   -0.0354    6.0378   -0.0000 C   0  0  0  0  0  0  0  0  0  0  0  0
    0.1179    7.5473   -0.0000 C   0  0  0  0  0  0  0  0  0  0  0  0
   -1.4977    5.7430   -0.0000 C   0  0  0  0  0  0  0  0  0  0  0  0
    1.4033    8.3138   -0.0000 C   0  0  0  0  0  0  0  0  0  0  0  0
   -1.2618    8.1723   -0.0000 C   0  0  0  0  0  0  0  0  0  0  0  0
   -2.2642    7.0520   -0.0000 N   0  0  0  0  0  0  0  0  0  0  0  0
    2.6887    7.5709   -0.0000 O   0  0  0  0  0  0  0  0  0  0  0  0
    1.4033    9.8233   -0.0000 N   0  0  0  0  0  0  0  0  0  0  0  0
   -3.7619    7.2289   -0.0000 C   0  0  0  0  0  0  0  0  0  0  0  0
    2.6887   10.5780   -0.0000 C   0  0  0  0  0  0  0  0  0  0  0  0
    0.1061   10.5898   -0.0000 C   0  0  0  0  0  0  0  0  0  0  0  0
   -4.3751    8.6086   -0.0000 O   0  0  0  0  0  0  0  0  0  0  0  0
   -4.6581    6.0378   -0.0000 C   0  0  0  0  0  0  0  0  0  0  0  0
    2.6887   12.0875   -0.0000 C   0  0  0  0  0  0  0  0  0  0  0  0
   -6.1558    6.2147   -0.0000 C   0  0  0  0  0  0  0  0  0  0  0  0
   -4.0685    4.6817   -0.0000 C   0  0  0  0  0  0  0  0  0  0  0  0
    3.9741   12.8304   -0.0000 C   0  0  0  0  0  0  0  0  0  0  0  0
    1.3915   12.8304   -0.0000 C   0  0  0  0  0  0  0  0  0  0  0  0
   -7.0520    5.0237   -0.0000 C   0  0  0  0  0  0  0  0  0  0  0  0
   -4.9765    3.4906   -0.0000 C   0  0  0  0  0  0  0  0  0  0  0  0
    3.9741   14.3399   -0.0000 C   0  0  0  0  0  0  0  0  0  0  0  0
    1.3797   14.3399   -0.0000 C   0  0  0  0  0  0  0  0  0  0  0  0
   -6.4742    3.6675   -0.0000 N   0  0  0  0  0  0  0  0  0  0  0  0
    2.6769   15.1064   -0.0000 C   0  0  0  0  0  0  0  0  0  0  0  0
    5.2595   15.0946   -0.0000 C   0  0  0  0  0  0  0  0  0  0  0  0
    0.0708   15.1064   -0.0000 C   0  0  0  0  0  0  0  0  0  0  0  0
   -7.3704    2.4765   -0.0000 C   0  0  0  0  0  0  0  0  0  0  0  0
    6.5331   15.8611   -0.0000 F   0  0  0  0  0  0  0  0  0  0  0  0
    6.0025   13.8092   -0.0000 F   0  0  0  0  0  0  0  0  0  0  0  0
    4.5048   16.3918   -0.0000 F   0  0  0  0  0  0  0  0  0  0  0  0
   -1.2382   15.8611   -0.0000 F   0  0  0  0  0  0  0  0  0  0  0  0
   -0.6958   13.8210   -0.0000 F   0  0  0  0  0  0  0  0  0  0  0  0
    0.8019   16.4036   -0.0000 F   0  0  0  0  0  0  0  0  0  0  0  0
   -8.8681    2.6533   -0.0000 O   0  0  0  0  0  0  0  0  0  0  0  0
   -6.7926    1.1203   -0.0000 C   0  0  0  0  0  0  0  0  0  0  0  0
  1  2  1  0
  2  3  2  0
  2  4  1  0
  3  5  1  0
  4  6  2  0
  5  7  2  0
  5  8  1  0
  9  7  1  1
  9 10  1  0
  9 11  1  0
 10 12  1  6
 10 13  1  0
 11 14  1  0
 12 15  2  0
 12 16  1  0
 14 17  1  0
 16 18  1  0
 16 19  1  0
 17 20  2  0
 17 21  1  0
 18 22  1  0
 21 23  1  0
 21 24  1  0
 22 25  2  0
 22 26  1  0
 23 27  1  0
 24 28  1  0
 25 29  1  0
 26 30  2  0
 27 31  1  0
 29 32  2  0
 29 33  1  0
 30 34  1  0
 31 35  1  0
 33 36  1  0
 33 37  1  0
 33 38  1  0
 34 39  1  0
 34 40  1  0
 34 41  1  0
 35 42  2  0
 35 43  1  0
  6  7  1  0
 13 14  1  0
 28 31  1  0
 30 32  1  0
M  END
>  <MolRegNo>  (1) 
399380

>  <m>  (1) 
=

>  <Value>  (1) 
92000

>  <Unit>  (1) 
nM

>  <Type>  (1) 
IC50

>  <pValue>  (1) 
4.04

>  <Ligand Efficiency>  (1) 
0

>  <Binding Efficiency>  (1) 
0

>  <Surface Efficiency>  (1) 
0

>  <Assay Index>  (1) 
297939

>  <Assay Category>  (1) 


>  <Assay Organism>  (1) 
Homo sapiens

>  <Target ID>  (1) 
11365

>  <Target Name>  (1) 
Cytochrome P450 2D6

>  <Target Organism>  (1) 
Homo sapiens

>  <Target Description>  (1) 
Target is a single protein chain

>  <Sequence Accession>  (1) 
P10635

>  <Reference>  (1) 
Bioorg Med Chem Lett 17 (19), 5310-5315 (2007)

>  <Pubmed ID>  (1) 
17723300

>  <DOI>  (1) 
10.1016/j.bmcl.2007.08.028

$$$$
