4wnv_ligand_338
     RDKit          2D

 29 31  0  0  1  0  0  0  0  0999 V2000
    0.0000   -0.0000   -0.0000 O   0  0  0  0  0  0  0  0  0  0  0  0
   -0.0119   -1.4866   -0.0000 C   0  0  0  0  0  0  0  0  0  0  0  0
    1.2725   -2.2240   -0.0000 N   0  0  0  0  0  0  0  0  0  0  0  0
   -1.3201   -2.2240   -0.0000 N   0  0  0  0  0  0  0  0  0  0  0  0
    2.5570   -1.4628   -0.0000 C   0  0  0  0  0  0  0  0  0  0  0  0
    1.2606   -3.7106   -0.0000 C   0  0  0  0  0  0  0  0  0  0  0  0
   -2.6283   -1.4628   -0.0000 C   0  0  0  0  0  0  0  0  0  0  0  0
    2.5451    0.0476   -0.0000 C   0  0  0  0  0  0  0  0  0  0  0  0
    3.8414   -2.2002   -0.0000 C   0  0  0  0  0  0  0  0  0  0  0  0
   -3.9365   -2.2002   -0.0000 C   0  0  0  0  0  0  0  0  0  0  0  0
    1.2369    0.8087   -0.0000 C   0  0  0  0  0  0  0  0  0  0  0  0
    3.8414    0.8087   -0.0000 C   0  0  0  0  0  0  0  0  0  0  0  0
    5.1258   -1.4390   -0.0000 N   0  0  0  0  0  0  0  0  0  0  0  0
   -3.9484   -3.6868   -0.0000 O   0  0  0  0  0  0  0  0  0  0  0  0
   -5.2448   -1.4390   -0.0000 N   0  0  0  0  0  0  0  0  0  0  0  0
    1.2250    2.3310   -0.0000 C   0  0  0  0  0  0  0  0  0  0  0  0
    3.8295    2.3310   -0.0000 C   0  0  0  0  0  0  0  0  0  0  0  0
    6.4816   -2.0337   -0.0000 C   0  0  0  0  0  0  0  0  0  0  0  0
    5.2685    0.0714   -0.0000 C   0  0  0  0  0  0  0  0  0  0  0  0
   -6.5530   -2.1764   -0.0000 C   0  0  0  0  0  0  0  0  0  0  0  0
    2.5094    3.0922   -0.0000 C   0  0  0  0  0  0  0  0  0  0  0  0
    7.4687   -0.9039   -0.0000 C   0  0  0  0  0  0  0  0  0  0  0  0
    6.7195    0.3925   -0.0000 C   0  0  0  0  0  0  0  0  0  0  0  0
   -7.8612   -1.4034   -0.0000 C   0  0  0  0  0  0  0  0  0  0  0  0
   -6.5530   -3.6511   -0.0000 C   0  0  0  0  0  0  0  0  0  0  0  0
    8.9435   -1.0466   -0.0000 O   0  0  0  0  0  0  0  0  0  0  0  0
   -9.1694   -2.1407   -0.0000 C   0  0  0  0  0  0  0  0  0  0  0  0
   -7.8612   -4.3885   -0.0000 C   0  0  0  0  0  0  0  0  0  0  0  0
   -9.1813   -3.6273   -0.0000 C   0  0  0  0  0  0  0  0  0  0  0  0
  1  2  2  0
  2  3  1  0
  2  4  1  0
  5  3  1  0
  3  6  1  0
  4  7  1  0
  5  8  1  0
  5  9  1  1
  7 10  1  0
  8 11  2  0
  8 12  1  0
  9 13  1  0
 10 14  2  0
 10 15  1  0
 11 16  1  0
 12 17  2  0
 13 18  1  0
 13 19  1  0
 15 20  1  0
 16 21  2  0
 18 22  1  0
 19 23  1  0
 20 24  2  0
 20 25  1  0
 22 26  1  6
 24 27  1  0
 25 28  2  0
 27 29  2  0
 17 21  1  0
 22 23  1  0
 28 29  1  0
M  END
>  <MolRegNo>  (1) 
384332

>  <m>  (1) 
=

>  <Value>  (1) 
5100

>  <Unit>  (1) 
nM

>  <Type>  (1) 
IC50

>  <pValue>  (1) 
5.29

>  <Ligand Efficiency>  (1) 
0

>  <Binding Efficiency>  (1) 
0

>  <Surface Efficiency>  (1) 
0

>  <Assay Index>  (1) 
287299

>  <Assay Category>  (1) 


>  <Assay Organism>  (1) 


>  <Target ID>  (1) 
11365

>  <Target Name>  (1) 
Cytochrome P450 2D6

>  <Target Organism>  (1) 
Homo sapiens

>  <Target Description>  (1) 
Target is a single protein chain

>  <Sequence Accession>  (1) 
P10635

>  <Reference>  (1) 
Bioorg Med Chem Lett 17 (7), 1951-1955 (2007)

>  <Pubmed ID>  (1) 
17307360

>  <DOI>  (1) 
10.1016/j.bmcl.2007.01.053

$$$$
