4wnv_ligand_645
     RDKit          2D

 42 46  0  0  0  0  0  0  0  0999 V2000
    0.0000   -0.0000   -0.0000 Cl  0  0  0  0  0  0  0  0  0  0  0  0
    1.2901    0.7693   -0.0000 C   0  0  0  0  0  0  0  0  0  0  0  0
    1.2783    2.2725   -0.0000 C   0  0  0  0  0  0  0  0  0  0  0  0
    2.5684    0.0473   -0.0000 C   0  0  0  0  0  0  0  0  0  0  0  0
   -0.0355    3.0419   -0.0000 Cl  0  0  0  0  0  0  0  0  0  0  0  0
    2.5566    3.0300   -0.0000 C   0  0  0  0  0  0  0  0  0  0  0  0
    3.8349    0.8049   -0.0000 C   0  0  0  0  0  0  0  0  0  0  0  0
    3.8349    2.2962   -0.0000 C   0  0  0  0  0  0  0  0  0  0  0  0
    5.1250    0.0592   -0.0000 N   0  0  0  0  0  0  0  0  0  0  0  0
    5.1250    3.0537   -0.0000 N   0  0  0  0  0  0  0  0  0  0  0  0
    6.4152    0.8167   -0.0000 C   0  0  0  0  0  0  0  0  0  0  0  0
    6.4152    2.3317   -0.0000 C   0  0  0  0  0  0  0  0  0  0  0  0
    5.1132    4.5687   -0.0000 C   0  0  0  0  0  0  0  0  0  0  0  0
    7.7053    3.1011   -0.0000 O   0  0  0  0  0  0  0  0  0  0  0  0
    6.4033    5.3381   -0.0000 C   0  0  0  0  0  0  0  0  0  0  0  0
    7.6935    4.6042   -0.0000 O   0  0  0  0  0  0  0  0  0  0  0  0
    6.3915    6.8531   -0.0000 N   0  0  0  0  0  0  0  0  0  0  0  0
    7.6935    7.6224   -0.0000 C   0  0  0  0  0  0  0  0  0  0  0  0
    5.0895    7.6106   -0.0000 C   0  0  0  0  0  0  0  0  0  0  0  0
    7.6816    9.1256   -0.0000 C   0  0  0  0  0  0  0  0  0  0  0  0
    8.9836    6.8886   -0.0000 C   0  0  0  0  0  0  0  0  0  0  0  0
    8.9718    9.8831   -0.0000 C   0  0  0  0  0  0  0  0  0  0  0  0
    6.3796    9.8713   -0.0000 C   0  0  0  0  0  0  0  0  0  0  0  0
   10.2737    7.6461   -0.0000 N   0  0  0  0  0  0  0  0  0  0  0  0
    8.9599   11.3863   -0.0000 C   0  0  0  0  0  0  0  0  0  0  0  0
    6.3678   11.3863   -0.0000 C   0  0  0  0  0  0  0  0  0  0  0  0
   11.5520    6.9123   -0.0000 C   0  0  0  0  0  0  0  0  0  0  0  0
   10.2500    9.1611   -0.0000 C   0  0  0  0  0  0  0  0  0  0  0  0
    7.6579   12.1557   -0.0000 C   0  0  0  0  0  0  0  0  0  0  0  0
   12.8422    7.6698   -0.0000 C   0  0  0  0  0  0  0  0  0  0  0  0
   11.5520    9.9186   -0.0000 C   0  0  0  0  0  0  0  0  0  0  0  0
    7.6461   13.6707   -0.0000 C   0  0  0  0  0  0  0  0  0  0  0  0
   12.8422    9.1848   -0.0000 O   0  0  0  0  0  0  0  0  0  0  0  0
    8.9362   14.4282   -0.0000 C   0  0  0  0  0  0  0  0  0  0  0  0
    6.3441   14.4282   -0.0000 C   0  0  0  0  0  0  0  0  0  0  0  0
    8.9244   15.9432   -0.0000 C   0  0  0  0  0  0  0  0  0  0  0  0
    6.3323   15.9432   -0.0000 C   0  0  0  0  0  0  0  0  0  0  0  0
   10.2145   16.7126   -0.0000 C   0  0  0  0  0  0  0  0  0  0  0  0
    7.6106   16.7126   -0.0000 C   0  0  0  0  0  0  0  0  0  0  0  0
   10.2027   18.2276   -0.0000 O   0  0  0  0  0  0  0  0  0  0  0  0
   11.5047   15.9669   -0.0000 N   0  0  0  0  0  0  0  0  0  0  0  0
   11.4928   14.4755   -0.0000 C   0  0  0  0  0  0  0  0  0  0  0  0
  1  2  1  0
  2  3  2  0
  2  4  1  0
  3  5  1  0
  3  6  1  0
  4  7  2  0
  6  8  2  0
  7  9  1  0
  8 10  1  0
  9 11  2  0
 10 12  1  0
 10 13  1  0
 12 14  2  0
 13 15  1  0
 15 16  2  0
 15 17  1  0
 17 18  1  0
 17 19  1  0
 18 20  1  0
 18 21  1  0
 20 22  2  0
 20 23  1  0
 21 24  1  0
 22 25  1  0
 23 26  2  0
 24 27  1  0
 24 28  1  0
 25 29  2  0
 27 30  1  0
 28 31  1  0
 29 32  1  0
 30 33  1  0
 32 34  2  0
 32 35  1  0
 34 36  1  0
 35 37  2  0
 36 38  1  0
 36 39  2  0
 38 40  2  0
 38 41  1  0
 41 42  1  0
  7  8  1  0
 11 12  1  0
 26 29  1  0
 31 33  1  0
 37 39  1  0
M  END
>  <MolRegNo>  (1) 
449326

>  <m>  (1) 
=

>  <Value>  (1) 
33000

>  <Unit>  (1) 
nM

>  <Type>  (1) 
IC50

>  <pValue>  (1) 
4.48

>  <Ligand Efficiency>  (1) 
0

>  <Binding Efficiency>  (1) 
0

>  <Surface Efficiency>  (1) 
0

>  <Assay Index>  (1) 
404069

>  <Assay Category>  (1) 


>  <Assay Organism>  (1) 


>  <Target ID>  (1) 
11365

>  <Target Name>  (1) 
Cytochrome P450 2D6

>  <Target Organism>  (1) 
Homo sapiens

>  <Target Description>  (1) 
Target is a single protein chain

>  <Sequence Accession>  (1) 
P10635

>  <Reference>  (1) 
Bioorg Med Chem Lett 18 (13), 3716-3719 (2008)

>  <Pubmed ID>  (1) 
18524591

>  <DOI>  (1) 
10.1016/j.bmcl.2008.05.058

$$$$
