4wnv_ligand_630
     RDKit          2D

 22 25  0  0  0  0  0  0  0  0999 V2000
    0.0000   -0.0000   -0.0000 F   0  0  0  0  0  0  0  0  0  0  0  0
    0.0000   -1.4906   -0.0000 C   0  0  0  0  0  0  0  0  0  0  0  0
    1.2998   -2.2299   -0.0000 C   0  0  0  0  0  0  0  0  0  0  0  0
   -1.3117   -2.2418   -0.0000 C   0  0  0  0  0  0  0  0  0  0  0  0
    1.2998   -3.7205   -0.0000 C   0  0  0  0  0  0  0  0  0  0  0  0
   -1.3117   -3.7324   -0.0000 C   0  0  0  0  0  0  0  0  0  0  0  0
   -0.0119   -4.4717   -0.0000 C   0  0  0  0  0  0  0  0  0  0  0  0
   -0.0119   -5.9623   -0.0000 C   0  0  0  0  0  0  0  0  0  0  0  0
   -1.3236   -6.7135   -0.0000 C   0  0  0  0  0  0  0  0  0  0  0  0
   -0.0358   -7.4529   -0.0000 C   0  0  0  0  0  0  0  0  0  0  0  0
   -2.7069   -7.3098   -0.0000 C   0  0  0  0  0  0  0  0  0  0  0  0
   -1.4906   -5.2110   -0.0000 C   0  0  0  0  0  0  0  0  0  0  0  0
    1.2521   -6.6778   -0.0000 C   0  0  0  0  0  0  0  0  0  0  0  0
   -0.0477   -8.9434   -0.0000 C   0  0  0  0  0  0  0  0  0  0  0  0
   -3.7205   -6.1769   -0.0000 N   0  0  0  0  0  0  0  0  0  0  0  0
   -2.9692   -4.8891   -0.0000 C   0  0  0  0  0  0  0  0  0  0  0  0
    2.5399   -7.4290   -0.0000 C   0  0  0  0  0  0  0  0  0  0  0  0
    1.2402   -9.6828   -0.0000 C   0  0  0  0  0  0  0  0  0  0  0  0
    2.5280   -8.9315   -0.0000 C   0  0  0  0  0  0  0  0  0  0  0  0
    3.9709   -6.9520   -0.0000 C   0  0  0  0  0  0  0  0  0  0  0  0
    3.9590   -9.3846   -0.0000 N   0  0  0  0  0  0  0  0  0  0  0  0
    4.8533   -8.1683   -0.0000 C   0  0  0  0  0  0  0  0  0  0  0  0
  1  2  1  0
  2  3  2  0
  2  4  1  0
  3  5  1  0
  4  6  2  0
  5  7  2  0
  7  8  1  0
  8  9  1  0
  9 10  1  0
  9 11  1  0
  9 12  1  0
 10 13  2  0
 10 14  1  0
 11 15  1  0
 12 16  1  0
 13 17  1  0
 14 18  2  0
 17 19  2  0
 17 20  1  0
 19 21  1  0
 20 22  2  0
  6  7  1  0
 15 16  1  0
 18 19  1  0
 21 22  1  0
M  END
>  <MolRegNo>  (1) 
515172

>  <m>  (1) 
=

>  <Value>  (1) 
100

>  <Unit>  (1) 
nM

>  <Type>  (1) 
IC50

>  <pValue>  (1) 
7

>  <Ligand Efficiency>  (1) 
0

>  <Binding Efficiency>  (1) 
0

>  <Surface Efficiency>  (1) 
0

>  <Assay Index>  (1) 
342264

>  <Assay Category>  (1) 


>  <Assay Organism>  (1) 


>  <Target ID>  (1) 
11365

>  <Target Name>  (1) 
Cytochrome P450 2D6

>  <Target Organism>  (1) 
Homo sapiens

>  <Target Description>  (1) 
Target is a single protein chain

>  <Sequence Accession>  (1) 
P10635

>  <Reference>  (1) 
Bioorg Med Chem Lett 18 (23), 6062-6066 (2008)

>  <Pubmed ID>  (1) 
18954985

>  <DOI>  (1) 
10.1016/j.bmcl.2008.10.025

$$$$
