4wnv_ligand_1029
     RDKit          2D

 22 24  0  0  0  0  0  0  0  0999 V2000
    0.0000   -0.0000   -0.0000 O   0  0  0  0  0  0  0  0  0  0  0  0
    1.2819    0.7596   -0.0000 C   0  0  0  0  0  0  0  0  0  0  0  0
   -1.3056    0.7596   -0.0000 C   0  0  0  0  0  0  0  0  0  0  0  0
    1.2819    2.2671   -0.0000 C   0  0  0  0  0  0  0  0  0  0  0  0
    2.5638    0.0237   -0.0000 C   0  0  0  0  0  0  0  0  0  0  0  0
    2.5519    3.0386   -0.0000 C   0  0  0  0  0  0  0  0  0  0  0  0
   -0.0237    3.0267   -0.0000 C   0  0  0  0  0  0  0  0  0  0  0  0
    3.8457    0.7834   -0.0000 C   0  0  0  0  0  0  0  0  0  0  0  0
    3.8338    2.3027   -0.0000 C   0  0  0  0  0  0  0  0  0  0  0  0
   -0.0356    4.5341   -0.0000 C   0  0  0  0  0  0  0  0  0  0  0  0
    1.2463    5.2938   -0.0000 N   0  0  0  0  0  0  0  0  0  0  0  0
   -1.3412    5.2938   -0.0000 C   0  0  0  0  0  0  0  0  0  0  0  0
    2.5282    4.5579   -0.0000 C   0  0  0  0  0  0  0  0  0  0  0  0
    1.2225    6.7893   -0.0000 C   0  0  0  0  0  0  0  0  0  0  0  0
   -2.6587    4.5579   -0.0000 C   0  0  0  0  0  0  0  0  0  0  0  0
   -1.3531    6.8130   -0.0000 C   0  0  0  0  0  0  0  0  0  0  0  0
    3.8101    5.3056   -0.0000 C   0  0  0  0  0  0  0  0  0  0  0  0
    2.5163    7.5489   -0.0000 C   0  0  0  0  0  0  0  0  0  0  0  0
   -3.9644    5.3175   -0.0000 C   0  0  0  0  0  0  0  0  0  0  0  0
   -2.6587    7.5727   -0.0000 C   0  0  0  0  0  0  0  0  0  0  0  0
    3.7982    6.8130   -0.0000 N   0  0  0  0  0  0  0  0  0  0  0  0
   -3.9763    6.8368   -0.0000 C   0  0  0  0  0  0  0  0  0  0  0  0
  1  2  1  0
  1  3  1  0
  2  4  2  0
  2  5  1  0
  4  6  1  0
  4  7  1  0
  5  8  2  0
  6  9  2  0
  7 10  1  0
 10 11  1  0
 10 12  1  0
 11 13  1  0
 11 14  1  0
 12 15  2  0
 12 16  1  0
 13 17  1  0
 14 18  1  0
 15 19  1  0
 16 20  2  0
 17 21  1  0
 19 22  2  0
  8  9  1  0
 18 21  1  0
 20 22  1  0
M  END
>  <MolRegNo>  (1) 
355158

>  <m>  (1) 
=

>  <Value>  (1) 
20000

>  <Unit>  (1) 
nM

>  <Type>  (1) 
IC50

>  <pValue>  (1) 
4.7

>  <Ligand Efficiency>  (1) 
0

>  <Binding Efficiency>  (1) 
0

>  <Surface Efficiency>  (1) 
0

>  <Assay Index>  (1) 
480301

>  <Assay Category>  (1) 


>  <Assay Organism>  (1) 


>  <Target ID>  (1) 
11365

>  <Target Name>  (1) 
Cytochrome P450 2D6

>  <Target Organism>  (1) 
Homo sapiens

>  <Target Description>  (1) 
Target is a single protein chain

>  <Sequence Accession>  (1) 
P10635

>  <Reference>  (1) 
Bioorg Med Chem Lett 20 (12), 3788-3792 (2010)

>  <Pubmed ID>  (1) 
20471260

>  <DOI>  (1) 
10.1016/j.bmcl.2010.04.052

$$$$
