4wnv_ligand_214
     RDKit          2D

 27 30  0  0  1  0  0  0  0  0999 V2000
    0.0000   -0.0000   -0.0000 O   0  0  0  0  0  0  0  0  0  0  0  0
   -0.0119   -1.4893   -0.0000 C   0  0  0  0  0  0  0  0  0  0  0  0
    1.2749   -2.2280   -0.0000 N   0  0  0  0  0  0  0  0  0  0  0  0
   -1.3225   -2.2280   -0.0000 C   0  0  0  0  0  0  0  0  0  0  0  0
    2.5617   -1.4655   -0.0000 C   0  0  0  0  0  0  0  0  0  0  0  0
    1.2630   -3.7174   -0.0000 C   0  0  0  0  0  0  0  0  0  0  0  0
   -2.7046   -1.5966   -0.0000 O   0  0  0  0  0  0  0  0  0  0  0  0
   -1.4893   -3.7055   -0.0000 C   0  0  0  0  0  0  0  0  0  0  0  0
    2.5497    0.0477   -0.0000 C   0  0  0  0  0  0  0  0  0  0  0  0
    3.8484   -2.2042   -0.0000 C   0  0  0  0  0  0  0  0  0  0  0  0
   -3.7174   -2.7046   -0.0000 C   0  0  0  0  0  0  0  0  0  0  0  0
   -2.9668   -4.0033   -0.0000 C   0  0  0  0  0  0  0  0  0  0  0  0
    1.2391    0.8102   -0.0000 C   0  0  0  0  0  0  0  0  0  0  0  0
    3.8484    0.8102   -0.0000 C   0  0  0  0  0  0  0  0  0  0  0  0
    5.1352   -1.4417   -0.0000 N   0  0  0  0  0  0  0  0  0  0  0  0
   -5.2186   -2.6927   -0.0000 C   0  0  0  0  0  0  0  0  0  0  0  0
   -3.7174   -5.2782   -0.0000 C   0  0  0  0  0  0  0  0  0  0  0  0
    1.2272    2.3234   -0.0000 C   0  0  0  0  0  0  0  0  0  0  0  0
    3.8365    2.3353   -0.0000 C   0  0  0  0  0  0  0  0  0  0  0  0
    6.4935   -2.0374   -0.0000 C   0  0  0  0  0  0  0  0  0  0  0  0
    5.2782    0.0715   -0.0000 C   0  0  0  0  0  0  0  0  0  0  0  0
   -5.9812   -3.9795   -0.0000 C   0  0  0  0  0  0  0  0  0  0  0  0
   -5.2186   -5.2663   -0.0000 C   0  0  0  0  0  0  0  0  0  0  0  0
    2.5140    3.0859   -0.0000 C   0  0  0  0  0  0  0  0  0  0  0  0
    7.4824   -0.9055   -0.0000 C   0  0  0  0  0  0  0  0  0  0  0  0
    6.7318    0.3932   -0.0000 C   0  0  0  0  0  0  0  0  0  0  0  0
    8.9598   -1.0485   -0.0000 O   0  0  0  0  0  0  0  0  0  0  0  0
  1  2  2  0
  2  3  1  0
  4  2  1  1
  5  3  1  0
  3  6  1  0
  4  7  1  0
  4  8  1  0
  5  9  1  0
  5 10  1  1
  7 11  1  0
  8 12  1  0
  9 13  2  0
  9 14  1  0
 10 15  1  0
 11 16  2  0
 12 17  2  0
 13 18  1  0
 14 19  2  0
 15 20  1  0
 15 21  1  0
 16 22  1  0
 17 23  1  0
 18 24  2  0
 20 25  1  0
 21 26  1  0
 25 27  1  6
 11 12  1  0
 19 24  1  0
 22 23  2  0
 25 26  1  0
M  END
>  <MolRegNo>  (1) 
331921

>  <m>  (1) 
=

>  <Value>  (1) 
250

>  <Unit>  (1) 
nM

>  <Type>  (1) 
IC50

>  <pValue>  (1) 
6.6

>  <Ligand Efficiency>  (1) 
0

>  <Binding Efficiency>  (1) 
0

>  <Surface Efficiency>  (1) 
0

>  <Assay Index>  (1) 
253815

>  <Assay Category>  (1) 


>  <Assay Organism>  (1) 
Homo sapiens

>  <Target ID>  (1) 
11365

>  <Target Name>  (1) 
Cytochrome P450 2D6

>  <Target Organism>  (1) 
Homo sapiens

>  <Target Description>  (1) 
Target is a single protein chain

>  <Sequence Accession>  (1) 
P10635

>  <Reference>  (1) 
Bioorg Med Chem Lett 15 (23), 5114-5119 (2005)

>  <Pubmed ID>  (1) 
16203140

>  <DOI>  (1) 
10.1016/j.bmcl.2005.08.094

$$$$
