4wnv_ligand_773
     RDKit          2D

 21 23  0  0  0  0  0  0  0  0999 V2000
    0.0000   -0.0000   -0.0000 O   0  0  0  0  0  0  0  0  0  0  0  0
    1.0483   -1.0483   -0.0000 C   0  0  0  0  0  0  0  0  0  0  0  0
    1.0363   -2.5373   -0.0000 C   0  0  0  0  0  0  0  0  0  0  0  0
    2.5373   -1.0363   -0.0000 C   0  0  0  0  0  0  0  0  0  0  0  0
   -0.0357   -3.5855   -0.0000 N   0  0  0  0  0  0  0  0  0  0  0  0
    2.5253   -2.5253   -0.0000 C   0  0  0  0  0  0  0  0  0  0  0  0
    3.5855    0.0357   -0.0000 O   0  0  0  0  0  0  0  0  0  0  0  0
   -1.5605   -3.5736   -0.0000 C   0  0  0  0  0  0  0  0  0  0  0  0
    3.5736   -3.5736   -0.0000 N   0  0  0  0  0  0  0  0  0  0  0  0
   -2.4658   -2.3467   -0.0000 N   0  0  0  0  0  0  0  0  0  0  0  0
   -2.4658   -4.7886   -0.0000 C   0  0  0  0  0  0  0  0  0  0  0  0
    5.0626   -3.5617   -0.0000 C   0  0  0  0  0  0  0  0  0  0  0  0
   -3.9190   -2.7993   -0.0000 N   0  0  0  0  0  0  0  0  0  0  0  0
   -3.9190   -4.3121   -0.0000 C   0  0  0  0  0  0  0  0  0  0  0  0
    5.8011   -4.8482   -0.0000 C   0  0  0  0  0  0  0  0  0  0  0  0
    5.8011   -2.2395   -0.0000 C   0  0  0  0  0  0  0  0  0  0  0  0
    5.0388   -6.1347   -0.0000 C   0  0  0  0  0  0  0  0  0  0  0  0
    7.2901   -4.8244   -0.0000 C   0  0  0  0  0  0  0  0  0  0  0  0
    5.7773   -7.4212   -0.0000 C   0  0  0  0  0  0  0  0  0  0  0  0
    8.0406   -6.1109   -0.0000 C   0  0  0  0  0  0  0  0  0  0  0  0
    7.2782   -7.4093   -0.0000 C   0  0  0  0  0  0  0  0  0  0  0  0
  1  2  2  0
  2  3  1  0
  2  4  1  0
  3  5  1  0
  3  6  2  0
  4  7  2  0
  5  8  1  0
  6  9  1  0
  8 10  1  0
  8 11  2  0
 12  9  1  0
 10 13  1  0
 11 14  1  0
 12 15  1  0
 12 16  1  1
 15 17  2  0
 15 18  1  0
 17 19  1  0
 18 20  2  0
 19 21  2  0
  4  6  1  0
 13 14  2  0
 20 21  1  0
M  END
>  <MolRegNo>  (1) 
481008

>  <m>  (1) 
=

>  <Value>  (1) 
0

>  <Unit>  (1) 
nM

>  <Type>  (1) 
IC50

>  <pValue>  (1) 
0

>  <Ligand Efficiency>  (1) 
0

>  <Binding Efficiency>  (1) 
0

>  <Surface Efficiency>  (1) 
0

>  <Assay Index>  (1) 
347992

>  <Assay Category>  (1) 


>  <Assay Organism>  (1) 


>  <Target ID>  (1) 
11365

>  <Target Name>  (1) 
Cytochrome P450 2D6

>  <Target Organism>  (1) 
Homo sapiens

>  <Target Description>  (1) 
Target is a single protein chain

>  <Sequence Accession>  (1) 
P10635

>  <Reference>  (1) 
Bioorg Med Chem 17 (9), 3342-3351 (2009)

>  <Pubmed ID>  (1) 
19364658

>  <DOI>  (1) 
10.1016/j.bmc.2009.03.041

$$$$
