4wnv_ligand_128
     RDKit          2D

 29 31  0  0  0  0  0  0  0  0999 V2000
    0.0000   -0.0000   -0.0000 O   0  0  0  0  0  0  0  0  0  0  0  0
   -1.3684   -0.7582   -0.0000 C   0  0  0  0  0  0  0  0  0  0  0  0
    1.3314   -0.7582   -0.0000 C   0  0  0  0  0  0  0  0  0  0  0  0
   -1.3869   -2.2929   -0.0000 C   0  0  0  0  0  0  0  0  0  0  0  0
   -2.7367    0.0555   -0.0000 C   0  0  0  0  0  0  0  0  0  0  0  0
    2.6628    0.0370   -0.0000 C   0  0  0  0  0  0  0  0  0  0  0  0
   -0.0555   -3.0511   -0.0000 C   0  0  0  0  0  0  0  0  0  0  0  0
   -2.7552   -3.0326   -0.0000 C   0  0  0  0  0  0  0  0  0  0  0  0
   -4.1051   -0.7212   -0.0000 C   0  0  0  0  0  0  0  0  0  0  0  0
    2.6443    1.6088   -0.0000 O   0  0  0  0  0  0  0  0  0  0  0  0
    3.9942   -0.7212   -0.0000 C   0  0  0  0  0  0  0  0  0  0  0  0
    1.2759   -3.8092   -0.0000 N   0  0  0  0  0  0  0  0  0  0  0  0
   -4.1236   -2.2560   -0.0000 C   0  0  0  0  0  0  0  0  0  0  0  0
    5.3255    0.0740   -0.0000 N   0  0  0  0  0  0  0  0  0  0  0  0
    6.6569   -0.6842   -0.0000 C   0  0  0  0  0  0  0  0  0  0  0  0
    7.9883    0.0925   -0.0000 C   0  0  0  0  0  0  0  0  0  0  0  0
    7.0453    0.8321   -0.0000 C   0  0  0  0  0  0  0  0  0  0  0  0
    6.6384   -2.2375   -0.0000 C   0  0  0  0  0  0  0  0  0  0  0  0
    9.3197   -0.6657   -0.0000 C   0  0  0  0  0  0  0  0  0  0  0  0
   11.6496   -0.6472   -0.0000 C   0  0  0  0  0  0  0  0  0  0  0  0
    9.3012   -1.9971   -0.0000 C   0  0  0  0  0  0  0  0  0  0  0  0
   11.6311   -1.9786   -0.0000 C   0  0  0  0  0  0  0  0  0  0  0  0
   12.8146    0.0555   -0.0000 C   0  0  0  0  0  0  0  0  0  0  0  0
   10.4662   -2.6443   -0.0000 N   0  0  0  0  0  0  0  0  0  0  0  0
   12.7776   -2.6258   -0.0000 C   0  0  0  0  0  0  0  0  0  0  0  0
   13.9611   -0.6102   -0.0000 C   0  0  0  0  0  0  0  0  0  0  0  0
   13.9426   -1.9416   -0.0000 C   0  0  0  0  0  0  0  0  0  0  0  0
   15.1260    0.0740   -0.0000 O   0  0  0  0  0  0  0  0  0  0  0  0
   16.2910   -0.5917   -0.0000 C   0  0  0  0  0  0  0  0  0  0  0  0
  1  2  1  0
  1  3  1  0
  2  4  2  0
  2  5  1  0
  3  6  1  0
  4  7  1  0
  4  8  1  0
  5  9  2  0
  6 10  1  0
  6 11  1  0
  7 12  3  0
  8 13  2  0
 11 14  1  0
 14 15  1  0
 15 16  1  0
 15 17  1  0
 15 18  1  0
 16 19  1  0
 19 20  1  0
 19 21  2  0
 20 22  2  0
 20 23  1  0
 21 24  1  0
 22 25  1  0
 23 26  2  0
 25 27  2  0
 26 28  1  0
 28 29  1  0
  9 13  1  0
 22 24  1  0
 26 27  1  0
M  END
>  <MolRegNo>  (1) 
160396

>  <m>  (1) 
=

>  <Value>  (1) 
50

>  <Unit>  (1) 
nM

>  <Type>  (1) 
IC50

>  <pValue>  (1) 
7.3

>  <Ligand Efficiency>  (1) 
0

>  <Binding Efficiency>  (1) 
0

>  <Surface Efficiency>  (1) 
0

>  <Assay Index>  (1) 
238811

>  <Assay Category>  (1) 


>  <Assay Organism>  (1) 
Homo sapiens

>  <Target ID>  (1) 
11365

>  <Target Name>  (1) 
Cytochrome P450 2D6

>  <Target Organism>  (1) 
Homo sapiens

>  <Target Description>  (1) 
Target is a single protein chain

>  <Sequence Accession>  (1) 
P10635

>  <Reference>  (1) 
Bioorg Med Chem Lett 15 (17), 3816-3820 (2005)

>  <Pubmed ID>  (1) 
15993593

>  <DOI>  (1) 
10.1016/j.bmcl.2005.06.007

$$$$
