4wnv_ligand_239
     RDKit          2D

 29 31  0  0  1  0  0  0  0  0999 V2000
    0.0000   -0.0000   -0.0000 O   0  0  0  0  0  0  0  0  0  0  0  0
   -0.0119    1.5228   -0.0000 N   0  0  0  0  0  0  0  0  0  0  0  0
   -1.3324    2.2842   -0.0000 O   0  0  0  0  0  0  0  0  0  0  0  0
    1.2729    2.2842   -0.0000 C   0  0  0  0  0  0  0  0  0  0  0  0
    2.5578    1.5466   -0.0000 C   0  0  0  0  0  0  0  0  0  0  0  0
    1.2610    3.8069   -0.0000 C   0  0  0  0  0  0  0  0  0  0  0  0
    3.8545    2.3080   -0.0000 C   0  0  0  0  0  0  0  0  0  0  0  0
    2.5459    4.5683   -0.0000 C   0  0  0  0  0  0  0  0  0  0  0  0
    3.8426    3.8307   -0.0000 C   0  0  0  0  0  0  0  0  0  0  0  0
    5.1275    4.5921   -0.0000 N   0  0  0  0  0  0  0  0  0  0  0  0
    6.4123    3.8545   -0.0000 C   0  0  0  0  0  0  0  0  0  0  0  0
    7.6971    4.6159   -0.0000 C   0  0  0  0  0  0  0  0  0  0  0  0
    7.6852    6.1268   -0.0000 O   0  0  0  0  0  0  0  0  0  0  0  0
    8.9820    3.8783   -0.0000 N   0  0  0  0  0  0  0  0  0  0  0  0
   10.2668    4.6397   -0.0000 C   0  0  0  0  0  0  0  0  0  0  0  0
    8.9701    2.3912   -0.0000 C   0  0  0  0  0  0  0  0  0  0  0  0
   10.2549    6.1506   -0.0000 C   0  0  0  0  0  0  0  0  0  0  0  0
   11.5517    3.9021   -0.0000 C   0  0  0  0  0  0  0  0  0  0  0  0
   11.5398    6.9120   -0.0000 C   0  0  0  0  0  0  0  0  0  0  0  0
    8.9463    6.9001   -0.0000 C   0  0  0  0  0  0  0  0  0  0  0  0
   12.8365    4.6635   -0.0000 N   0  0  0  0  0  0  0  0  0  0  0  0
   11.5279    8.4228   -0.0000 C   0  0  0  0  0  0  0  0  0  0  0  0
    8.9225    8.4109   -0.0000 C   0  0  0  0  0  0  0  0  0  0  0  0
   14.1927    4.0687   -0.0000 C   0  0  0  0  0  0  0  0  0  0  0  0
   12.9793    6.1625   -0.0000 C   0  0  0  0  0  0  0  0  0  0  0  0
   10.2073    9.1842   -0.0000 C   0  0  0  0  0  0  0  0  0  0  0  0
   15.1801    5.1988   -0.0000 C   0  0  0  0  0  0  0  0  0  0  0  0
   14.4307    6.4956   -0.0000 C   0  0  0  0  0  0  0  0  0  0  0  0
   16.6672    5.0561   -0.0000 O   0  0  0  0  0  0  0  0  0  0  0  0
  1  2  2  0
  2  3  1  0
  2  4  1  0
  4  5  2  0
  4  6  1  0
  5  7  1  0
  6  8  2  0
  7  9  2  0
  9 10  1  0
 10 11  1  0
 11 12  1  0
 12 13  2  0
 12 14  1  0
 15 14  1  0
 14 16  1  0
 15 17  1  0
 15 18  1  1
 17 19  2  0
 17 20  1  0
 18 21  1  0
 19 22  1  0
 20 23  2  0
 21 24  1  0
 21 25  1  0
 22 26  2  0
 24 27  1  0
 25 28  1  0
 27 29  1  6
  8  9  1  0
 23 26  1  0
 27 28  1  0
M  CHG  2   2   1   3  -1
M  END
>  <MolRegNo>  (1) 
337670

>  <m>  (1) 
=

>  <Value>  (1) 
3400

>  <Unit>  (1) 
nM

>  <Type>  (1) 
IC50

>  <pValue>  (1) 
5.47

>  <Ligand Efficiency>  (1) 
0

>  <Binding Efficiency>  (1) 
0

>  <Surface Efficiency>  (1) 
0

>  <Assay Index>  (1) 
257094

>  <Assay Category>  (1) 


>  <Assay Organism>  (1) 
Homo sapiens

>  <Target ID>  (1) 
11365

>  <Target Name>  (1) 
Cytochrome P450 2D6

>  <Target Organism>  (1) 
Homo sapiens

>  <Target Description>  (1) 
Target is a single protein chain

>  <Sequence Accession>  (1) 
P10635

>  <Reference>  (1) 
Bioorg Med Chem Lett 16 (3), 645-648 (2006)

>  <Pubmed ID>  (1) 
16263278

>  <DOI>  (1) 
10.1016/j.bmcl.2005.10.034

$$$$
