4wnv_ligand_1077
     RDKit          2D

 20 21  0  0  0  0  0  0  0  0999 V2000
    0.0000   -0.0000   -0.0000 Cl  0  0  0  0  0  0  0  0  0  0  0  0
   -1.3748    0.6228   -0.0000 C   0  0  0  0  0  0  0  0  0  0  0  0
   -1.6920    2.0915   -0.0000 S   0  0  0  0  0  0  0  0  0  0  0  0
   -2.6790   -0.1058   -0.0000 C   0  0  0  0  0  0  0  0  0  0  0  0
   -3.1843    2.2560   -0.0000 C   0  0  0  0  0  0  0  0  0  0  0  0
   -2.8553   -1.5745   -0.0000 Cl  0  0  0  0  0  0  0  0  0  0  0  0
   -3.7953    0.9048   -0.0000 C   0  0  0  0  0  0  0  0  0  0  0  0
   -3.9363    3.5603   -0.0000 C   0  0  0  0  0  0  0  0  0  0  0  0
   -3.1960    4.8645   -0.0000 O   0  0  0  0  0  0  0  0  0  0  0  0
   -5.4403    3.5720   -0.0000 C   0  0  0  0  0  0  0  0  0  0  0  0
   -4.9585    2.1738   -0.0000 C   0  0  0  0  0  0  0  0  0  0  0  0
   -6.9443    3.5485   -0.0000 C   0  0  0  0  0  0  0  0  0  0  0  0
   -5.9338    4.9938   -0.0000 C   0  0  0  0  0  0  0  0  0  0  0  0
   -6.1453    1.2690   -0.0000 N   0  0  0  0  0  0  0  0  0  0  0  0
   -7.3791    2.1268   -0.0000 C   0  0  0  0  0  0  0  0  0  0  0  0
   -7.4143    5.2993   -0.0000 C   0  0  0  0  0  0  0  0  0  0  0  0
   -7.9078    6.7211   -0.0000 C   0  0  0  0  0  0  0  0  0  0  0  0
   -9.3883    7.0266   -0.0000 C   0  0  0  0  0  0  0  0  0  0  0  0
   -6.9326    7.8608   -0.0000 C   0  0  0  0  0  0  0  0  0  0  0  0
   -8.6833    8.0253   -0.0000 C   0  0  0  0  0  0  0  0  0  0  0  0
  1  2  1  0
  2  3  1  0
  2  4  2  0
  3  5  1  0
  4  6  1  0
  4  7  1  0
  5  8  1  0
  8  9  2  0
  8 10  1  0
 10 11  1  0
 10 12  1  0
 10 13  1  0
 11 14  1  0
 12 15  1  0
 13 16  1  0
 16 17  1  0
 17 18  1  0
 17 19  1  0
 17 20  1  0
  5  7  2  0
 14 15  1  0
M  END
>  <MolRegNo>  (1) 
690695

>  <m>  (1) 
=

>  <Value>  (1) 
15000

>  <Unit>  (1) 
nM

>  <Type>  (1) 
IC50

>  <pValue>  (1) 
4.82

>  <Ligand Efficiency>  (1) 
0

>  <Binding Efficiency>  (1) 
0

>  <Surface Efficiency>  (1) 
0

>  <Assay Index>  (1) 
497257

>  <Assay Category>  (1) 


>  <Assay Organism>  (1) 


>  <Target ID>  (1) 
11365

>  <Target Name>  (1) 
Cytochrome P450 2D6

>  <Target Organism>  (1) 
Homo sapiens

>  <Target Description>  (1) 
Target is a single protein chain

>  <Sequence Accession>  (1) 
P10635

>  <Reference>  (1) 
Bioorg Med Chem Lett 20 (18), 5559-5566 (2010)

>  <Pubmed ID>  (1) 
20691589

>  <DOI>  (1) 
10.1016/j.bmcl.2010.07.020

$$$$
