4wnv_ligand_495
     RDKit          2D

 37 40  0  0  1  0  0  0  0  0999 V2000
    0.0000   -0.0000   -0.0000 F   0  0  0  0  0  0  0  0  0  0  0  0
    1.4939   -0.0000   -0.0000 C   0  0  0  0  0  0  0  0  0  0  0  0
    2.2290   -1.2923   -0.0000 C   0  0  0  0  0  0  0  0  0  0  0  0
    2.2409    1.3042   -0.0000 C   0  0  0  0  0  0  0  0  0  0  0  0
    3.7229   -1.2923   -0.0000 C   0  0  0  0  0  0  0  0  0  0  0  0
    3.7229    1.3161   -0.0000 C   0  0  0  0  0  0  0  0  0  0  0  0
    4.4698    0.0237   -0.0000 C   0  0  0  0  0  0  0  0  0  0  0  0
    5.9637    0.0356   -0.0000 C   0  0  0  0  0  0  0  0  0  0  0  0
    6.7107    1.3516   -0.0000 C   0  0  0  0  0  0  0  0  0  0  0  0
    8.2046    1.3635   -0.0000 C   0  0  0  0  0  0  0  0  0  0  0  0
    5.9400    2.6677   -0.0000 C   0  0  0  0  0  0  0  0  0  0  0  0
    8.9515    2.6677   -0.0000 N   0  0  0  0  0  0  0  0  0  0  0  0
    6.6870    3.9837   -0.0000 C   0  0  0  0  0  0  0  0  0  0  0  0
   10.4455    2.6677   -0.0000 C   0  0  0  0  0  0  0  0  0  0  0  0
    8.1927    3.9837   -0.0000 C   0  0  0  0  0  0  0  0  0  0  0  0
   11.1924    3.9837   -0.0000 O   0  0  0  0  0  0  0  0  0  0  0  0
   11.1805    1.3753   -0.0000 C   0  0  0  0  0  0  0  0  0  0  0  0
   12.6744    1.3753   -0.0000 C   0  0  0  0  0  0  0  0  0  0  0  0
   13.4214    2.6914   -0.0000 N   0  0  0  0  0  0  0  0  0  0  0  0
   13.4095    0.0830   -0.0000 C   0  0  0  0  0  0  0  0  0  0  0  0
   14.9153    2.6914   -0.0000 C   0  0  0  0  0  0  0  0  0  0  0  0
   15.6504    1.3991   -0.0000 O   0  0  0  0  0  0  0  0  0  0  0  0
   15.6622    4.0074   -0.0000 N   0  0  0  0  0  0  0  0  0  0  0  0
   17.1561    4.0074   -0.0000 C   0  0  0  0  0  0  0  0  0  0  0  0
   17.8794    2.7151   -0.0000 C   0  0  0  0  0  0  0  0  0  0  0  0
   17.8912    5.3235   -0.0000 C   0  0  0  0  0  0  0  0  0  0  0  0
   19.3733    2.7151   -0.0000 C   0  0  0  0  0  0  0  0  0  0  0  0
   19.3851    5.3354   -0.0000 C   0  0  0  0  0  0  0  0  0  0  0  0
   20.1202    1.4228   -0.0000 C   0  0  0  0  0  0  0  0  0  0  0  0
   20.1202    4.0312   -0.0000 C   0  0  0  0  0  0  0  0  0  0  0  0
   20.1321    6.6514   -0.0000 C   0  0  0  0  0  0  0  0  0  0  0  0
   21.6141    1.2805   -0.0000 N   0  0  0  0  0  0  0  0  0  0  0  0
   19.5037    0.0593   -0.0000 N   0  0  0  0  0  0  0  0  0  0  0  0
   21.6260    6.6633   -0.0000 C   0  0  0  0  0  0  0  0  0  0  0  0
   21.9224   -0.1778   -0.0000 N   0  0  0  0  0  0  0  0  0  0  0  0
   20.6182   -0.9367   -0.0000 N   0  0  0  0  0  0  0  0  0  0  0  0
   18.0217   -0.2490   -0.0000 C   0  0  0  0  0  0  0  0  0  0  0  0
  1  2  1  0
  2  3  2  0
  2  4  1  0
  3  5  1  0
  4  6  2  0
  5  7  2  0
  7  8  1  0
  9  8  1  6
  9 10  1  0
  9 11  1  0
 10 12  1  0
 11 13  1  0
 12 14  1  0
 12 15  1  0
 14 16  1  6
 14 17  1  0
 17 18  1  0
 18 19  1  0
 18 20  1  6
 19 21  1  0
 21 22  2  0
 21 23  1  0
 23 24  1  0
 24 25  2  0
 24 26  1  0
 25 27  1  0
 26 28  2  0
 27 29  1  0
 27 30  2  0
 28 31  1  0
 29 32  2  0
 29 33  1  0
 31 34  1  0
 32 35  1  0
 33 36  1  0
 33 37  1  0
  6  7  1  0
 13 15  1  0
 28 30  1  0
 35 36  2  0
M  END
>  <MolRegNo>  (1) 
438063

>  <m>  (1) 
=

>  <Value>  (1) 
2500

>  <Unit>  (1) 
nM

>  <Type>  (1) 
IC50

>  <pValue>  (1) 
5.6

>  <Ligand Efficiency>  (1) 
0

>  <Binding Efficiency>  (1) 
0

>  <Surface Efficiency>  (1) 
0

>  <Assay Index>  (1) 
314783

>  <Assay Category>  (1) 


>  <Assay Organism>  (1) 


>  <Target ID>  (1) 
11365

>  <Target Name>  (1) 
Cytochrome P450 2D6

>  <Target Organism>  (1) 
Homo sapiens

>  <Target Description>  (1) 
Target is a single protein chain

>  <Sequence Accession>  (1) 
P10635

>  <Reference>  (1) 
Bioorg Med Chem Lett 18 (2), 576-585 (2008)

>  <Pubmed ID>  (1) 
18096386

>  <DOI>  (1) 
10.1016/j.bmcl.2007.11.067

$$$$
