4wnv_ligand_740
     RDKit          2D

 20 22  0  0  0  0  0  0  0  0999 V2000
    0.0000   -0.0000   -0.0000 O   0  0  0  0  0  0  0  0  0  0  0  0
    1.4513    0.3212   -0.0000 C   0  0  0  0  0  0  0  0  0  0  0  0
   -0.4758   -1.4156   -0.0000 C   0  0  0  0  0  0  0  0  0  0  0  0
    1.8915    1.7487   -0.0000 C   0  0  0  0  0  0  0  0  0  0  0  0
    2.4387   -0.7851   -0.0000 C   0  0  0  0  0  0  0  0  0  0  0  0
   -1.9272   -1.8677   -0.0000 C   0  0  0  0  0  0  0  0  0  0  0  0
    0.4045   -2.6290   -0.0000 C   0  0  0  0  0  0  0  0  0  0  0  0
    3.3428    2.0818   -0.0000 C   0  0  0  0  0  0  0  0  0  0  0  0
    0.8684    2.8669   -0.0000 C   0  0  0  0  0  0  0  0  0  0  0  0
    3.8900   -0.4639   -0.0000 C   0  0  0  0  0  0  0  0  0  0  0  0
   -1.9391   -3.3666   -0.0000 C   0  0  0  0  0  0  0  0  0  0  0  0
   -3.2357   -1.1063   -0.0000 C   0  0  0  0  0  0  0  0  0  0  0  0
    1.4513   -1.5465   -0.0000 O   0  0  0  0  0  0  0  0  0  0  0  0
   -0.4996   -3.8424   -0.0000 C   0  0  0  0  0  0  0  0  0  0  0  0
    1.8915   -2.6171   -0.0000 C   0  0  0  0  0  0  0  0  0  0  0  0
    4.3421    0.9755   -0.0000 C   0  0  0  0  0  0  0  0  0  0  0  0
   -3.2476   -4.1041   -0.0000 C   0  0  0  0  0  0  0  0  0  0  0  0
   -4.5443   -1.8439   -0.0000 C   0  0  0  0  0  0  0  0  0  0  0  0
    2.6290   -3.9019   -0.0000 N   0  0  0  0  0  0  0  0  0  0  0  0
   -4.5562   -3.3428   -0.0000 C   0  0  0  0  0  0  0  0  0  0  0  0
  1  2  1  0
  1  3  1  0
  2  4  2  0
  2  5  1  0
  3  6  1  0
  3  7  1  0
  4  8  1  0
  4  9  1  0
  5 10  2  0
  6 11  2  0
  6 12  1  0
  7 13  1  0
  7 14  1  0
  7 15  1  0
  8 16  2  0
 11 17  1  0
 12 18  2  0
 15 19  1  0
 17 20  2  0
 10 16  1  0
 11 14  1  0
 18 20  1  0
M  END
>  <MolRegNo>  (1) 
452285

>  <m>  (1) 
=

>  <Value>  (1) 
4000

>  <Unit>  (1) 
nM

>  <Type>  (1) 
IC50

>  <pValue>  (1) 
5.4

>  <Ligand Efficiency>  (1) 
0

>  <Binding Efficiency>  (1) 
0

>  <Surface Efficiency>  (1) 
0

>  <Assay Index>  (1) 
407281

>  <Assay Category>  (1) 


>  <Assay Organism>  (1) 


>  <Target ID>  (1) 
11365

>  <Target Name>  (1) 
Cytochrome P450 2D6

>  <Target Organism>  (1) 
Homo sapiens

>  <Target Description>  (1) 
Target is a single protein chain

>  <Sequence Accession>  (1) 
P10635

>  <Reference>  (1) 
Bioorg Med Chem Lett 18 (23), 6151-6155 (2008)

>  <Pubmed ID>  (1) 
18954981

>  <DOI>  (1) 
10.1016/j.bmcl.2008.10.013

$$$$
