4wnv_ligand_806
     RDKit          2D

 29 32  0  0  0  0  0  0  0  0999 V2000
    0.0000   -0.0000   -0.0000 O   0  0  0  0  0  0  0  0  0  0  0  0
    1.4438    0.3667   -0.0000 C   0  0  0  0  0  0  0  0  0  0  0  0
    2.4751   -0.6990   -0.0000 N   0  0  0  0  0  0  0  0  0  0  0  0
    1.8449    1.8220   -0.0000 C   0  0  0  0  0  0  0  0  0  0  0  0
    2.0511   -2.1314   -0.0000 C   0  0  0  0  0  0  0  0  0  0  0  0
    3.9189   -0.3323   -0.0000 C   0  0  0  0  0  0  0  0  0  0  0  0
    3.2887    2.1886   -0.0000 C   0  0  0  0  0  0  0  0  0  0  0  0
    0.7907    2.9106   -0.0000 C   0  0  0  0  0  0  0  0  0  0  0  0
    3.0824   -3.1970   -0.0000 C   0  0  0  0  0  0  0  0  0  0  0  0
    4.9502   -1.3980   -0.0000 C   0  0  0  0  0  0  0  0  0  0  0  0
    3.6898    3.6439   -0.0000 C   0  0  0  0  0  0  0  0  0  0  0  0
    4.3200    1.1230   -0.0000 C   0  0  0  0  0  0  0  0  0  0  0  0
    1.1917    4.3658   -0.0000 C   0  0  0  0  0  0  0  0  0  0  0  0
    2.6355    4.7325   -0.0000 C   0  0  0  0  0  0  0  0  0  0  0  0
    3.0366    6.1878   -0.0000 C   0  0  0  0  0  0  0  0  0  0  0  0
    1.9824    7.2764   -0.0000 C   0  0  0  0  0  0  0  0  0  0  0  0
    4.4804    6.5545   -0.0000 C   0  0  0  0  0  0  0  0  0  0  0  0
    2.3834    8.7317   -0.0000 C   0  0  0  0  0  0  0  0  0  0  0  0
    0.5156    6.9326   -0.0000 C   0  0  0  0  0  0  0  0  0  0  0  0
    4.8815    8.0098   -0.0000 C   0  0  0  0  0  0  0  0  0  0  0  0
    3.8273    9.0983   -0.0000 O   0  0  0  0  0  0  0  0  0  0  0  0
    1.3292    9.8203   -0.0000 C   0  0  0  0  0  0  0  0  0  0  0  0
   -0.5386    8.0212   -0.0000 C   0  0  0  0  0  0  0  0  0  0  0  0
    5.2825    9.4650   -0.0000 C   0  0  0  0  0  0  0  0  0  0  0  0
    5.9128    6.9441   -0.0000 C   0  0  0  0  0  0  0  0  0  0  0  0
   -0.1375    9.4765   -0.0000 C   0  0  0  0  0  0  0  0  0  0  0  0
    6.7264    9.8317   -0.0000 C   0  0  0  0  0  0  0  0  0  0  0  0
    7.3566    7.3108   -0.0000 C   0  0  0  0  0  0  0  0  0  0  0  0
    7.7577    8.7660   -0.0000 N   0  0  0  0  0  0  0  0  0  0  0  0
  1  2  2  0
  2  3  1  0
  2  4  1  0
  3  5  1  0
  3  6  1  0
  4  7  2  0
  4  8  1  0
  5  9  1  0
  6 10  1  0
  7 11  1  0
  7 12  1  0
  8 13  2  0
 11 14  2  0
 14 15  1  0
 15 16  1  0
 15 17  2  0
 16 18  2  0
 16 19  1  0
 17 20  1  0
 18 21  1  0
 18 22  1  0
 19 23  2  0
 20 24  1  0
 20 25  1  0
 22 26  2  0
 24 27  1  0
 25 28  1  0
 27 29  1  0
 13 14  1  0
 20 21  1  0
 23 26  1  0
 28 29  1  0
M  END
>  <MolRegNo>  (1) 
566240

>  <m>  (1) 
=

>  <Value>  (1) 
9500

>  <Unit>  (1) 
nM

>  <Type>  (1) 
IC50

>  <pValue>  (1) 
5.02

>  <Ligand Efficiency>  (1) 
0

>  <Binding Efficiency>  (1) 
0

>  <Surface Efficiency>  (1) 
0

>  <Assay Index>  (1) 
428577

>  <Assay Category>  (1) 


>  <Assay Organism>  (1) 
Homo sapiens

>  <Target ID>  (1) 
11365

>  <Target Name>  (1) 
Cytochrome P450 2D6

>  <Target Organism>  (1) 
Homo sapiens

>  <Target Description>  (1) 
Target is a single protein chain

>  <Sequence Accession>  (1) 
P10635

>  <Reference>  (1) 
J Med Chem 52 (18), 5685-5702 (2009)

>  <Pubmed ID>  (1) 
19694468

>  <DOI>  (1) 
10.1021/jm900773n

$$$$
