4wnv_ligand_400
     RDKit          2D

 20 22  0  0  1  0  0  0  0  0999 V2000
    0.0000   -0.0000   -0.0000 O   0  0  0  0  0  0  0  0  0  0  0  0
    1.2970    0.7615   -0.0000 C   0  0  0  0  0  0  0  0  0  0  0  0
   -0.0119   -1.4993   -0.0000 C   0  0  0  0  0  0  0  0  0  0  0  0
    2.5821    0.0238   -0.0000 C   0  0  0  0  0  0  0  0  0  0  0  0
    1.2851   -2.2489   -0.0000 C   0  0  0  0  0  0  0  0  0  0  0  0
    2.5702   -1.4755   -0.0000 C   0  0  0  0  0  0  0  0  0  0  0  0
    3.8672   -2.2132   -0.0000 N   0  0  0  0  0  0  0  0  0  0  0  0
    5.1642   -1.4517   -0.0000 C   0  0  0  0  0  0  0  0  0  0  0  0
    3.8553   -3.7125   -0.0000 C   0  0  0  0  0  0  0  0  0  0  0  0
    5.3070    0.0595   -0.0000 C   0  0  0  0  0  0  0  0  0  0  0  0
    6.5325   -2.0585   -0.0000 C   0  0  0  0  0  0  0  0  0  0  0  0
    5.1523   -4.4502   -0.0000 C   0  0  0  0  0  0  0  0  0  0  0  0
    6.7705    0.3808   -0.0000 N   0  0  0  0  0  0  0  0  0  0  0  0
    7.5321   -0.9281   -0.0000 C   0  0  0  0  0  0  0  0  0  0  0  0
    5.1404   -5.9495   -0.0000 C   0  0  0  0  0  0  0  0  0  0  0  0
    6.4374   -3.6887   -0.0000 C   0  0  0  0  0  0  0  0  0  0  0  0
    6.4374   -6.6872   -0.0000 C   0  0  0  0  0  0  0  0  0  0  0  0
    3.8196   -6.6872   -0.0000 C   0  0  0  0  0  0  0  0  0  0  0  0
    7.7343   -4.4264   -0.0000 C   0  0  0  0  0  0  0  0  0  0  0  0
    7.7343   -5.9257   -0.0000 C   0  0  0  0  0  0  0  0  0  0  0  0
  1  2  1  0
  1  3  1  0
  2  4  1  0
  3  5  1  0
  4  6  1  0
  6  7  1  0
  8  7  1  6
  7  9  1  0
  8 10  1  0
  8 11  1  0
  9 12  1  0
 10 13  1  0
 11 14  1  0
 12 15  2  0
 12 16  1  0
 15 17  1  0
 15 18  1  0
 16 19  2  0
 17 20  2  0
  5  6  1  0
 13 14  1  0
 19 20  1  0
M  END
>  <MolRegNo>  (1) 
412791

>  <m>  (1) 
=

>  <Value>  (1) 
30000

>  <Unit>  (1) 
nM

>  <Type>  (1) 
IC50

>  <pValue>  (1) 
4.52

>  <Ligand Efficiency>  (1) 
0

>  <Binding Efficiency>  (1) 
0

>  <Surface Efficiency>  (1) 
0

>  <Assay Index>  (1) 
303145

>  <Assay Category>  (1) 


>  <Assay Organism>  (1) 
Homo sapiens

>  <Target ID>  (1) 
11365

>  <Target Name>  (1) 
Cytochrome P450 2D6

>  <Target Organism>  (1) 
Homo sapiens

>  <Target Description>  (1) 
Target is a single protein chain

>  <Sequence Accession>  (1) 
P10635

>  <Reference>  (1) 
Bioorg Med Chem Lett 17 (7), 2022-2025 (2007)

>  <Pubmed ID>  (1) 
17267217

>  <DOI>  (1) 
10.1016/j.bmcl.2007.01.020

$$$$
