4wnv_ligand_505
     RDKit          2D

 39 42  0  0  1  0  0  0  0  0999 V2000
    0.0000   -0.0000   -0.0000 F   0  0  0  0  0  0  0  0  0  0  0  0
    1.4938   -0.0000   -0.0000 C   0  0  0  0  0  0  0  0  0  0  0  0
    2.2288   -1.2923   -0.0000 C   0  0  0  0  0  0  0  0  0  0  0  0
    2.2407    1.3041   -0.0000 C   0  0  0  0  0  0  0  0  0  0  0  0
    3.7226   -1.2923   -0.0000 C   0  0  0  0  0  0  0  0  0  0  0  0
    3.7226    1.3160   -0.0000 C   0  0  0  0  0  0  0  0  0  0  0  0
    4.4696    0.0237   -0.0000 C   0  0  0  0  0  0  0  0  0  0  0  0
    5.9634    0.0356   -0.0000 C   0  0  0  0  0  0  0  0  0  0  0  0
    6.7103    1.3515   -0.0000 C   0  0  0  0  0  0  0  0  0  0  0  0
    8.2041    1.3634   -0.0000 C   0  0  0  0  0  0  0  0  0  0  0  0
    5.9396    2.6675   -0.0000 C   0  0  0  0  0  0  0  0  0  0  0  0
    8.9510    2.6675   -0.0000 N   0  0  0  0  0  0  0  0  0  0  0  0
    6.6865    3.9835   -0.0000 C   0  0  0  0  0  0  0  0  0  0  0  0
    8.1922    3.9835   -0.0000 C   0  0  0  0  0  0  0  0  0  0  0  0
   10.4448    2.6675   -0.0000 C   0  0  0  0  0  0  0  0  0  0  0  0
   11.1798    1.3752   -0.0000 C   0  0  0  0  0  0  0  0  0  0  0  0
   12.6736    1.3752   -0.0000 C   0  0  0  0  0  0  0  0  0  0  0  0
   13.4205    2.6912   -0.0000 N   0  0  0  0  0  0  0  0  0  0  0  0
   13.4087    0.0830   -0.0000 C   0  0  0  0  0  0  0  0  0  0  0  0
   14.9143    2.6912   -0.0000 C   0  0  0  0  0  0  0  0  0  0  0  0
   12.6380   -1.2093   -0.0000 C   0  0  0  0  0  0  0  0  0  0  0  0
   15.6494    1.3990   -0.0000 O   0  0  0  0  0  0  0  0  0  0  0  0
   15.6612    4.0072   -0.0000 N   0  0  0  0  0  0  0  0  0  0  0  0
   17.1550    4.0072   -0.0000 C   0  0  0  0  0  0  0  0  0  0  0  0
   17.8782    2.7149   -0.0000 C   0  0  0  0  0  0  0  0  0  0  0  0
   17.8901    5.3232   -0.0000 C   0  0  0  0  0  0  0  0  0  0  0  0
   19.3720    2.7149   -0.0000 C   0  0  0  0  0  0  0  0  0  0  0  0
   19.3839    5.3350   -0.0000 C   0  0  0  0  0  0  0  0  0  0  0  0
   20.1189    1.4227   -0.0000 C   0  0  0  0  0  0  0  0  0  0  0  0
   20.1189    4.0309   -0.0000 C   0  0  0  0  0  0  0  0  0  0  0  0
   20.1308    6.6510   -0.0000 C   0  0  0  0  0  0  0  0  0  0  0  0
   21.6009    1.2685   -0.0000 N   0  0  0  0  0  0  0  0  0  0  0  0
   19.4906    0.0593   -0.0000 N   0  0  0  0  0  0  0  0  0  0  0  0
   20.8540    7.9788   -0.0000 O   0  0  0  0  0  0  0  0  0  0  0  0
   21.4230    5.9159   -0.0000 C   0  0  0  0  0  0  0  0  0  0  0  0
   18.8148    7.4097   -0.0000 C   0  0  0  0  0  0  0  0  0  0  0  0
   21.8972   -0.1897   -0.0000 N   0  0  0  0  0  0  0  0  0  0  0  0
   20.5931   -0.9484   -0.0000 N   0  0  0  0  0  0  0  0  0  0  0  0
   18.0086   -0.2371   -0.0000 C   0  0  0  0  0  0  0  0  0  0  0  0
  1  2  1  0
  2  3  2  0
  2  4  1  0
  3  5  1  0
  4  6  2  0
  5  7  2  0
  7  8  1  0
  9  8  1  6
  9 10  1  0
  9 11  1  0
 10 12  1  0
 11 13  1  0
 12 14  1  0
 12 15  1  0
 15 16  1  0
 17 16  1  6
 17 18  1  0
 17 19  1  0
 18 20  1  0
 19 21  1  0
 20 22  2  0
 20 23  1  0
 23 24  1  0
 24 25  2  0
 24 26  1  0
 25 27  1  0
 26 28  2  0
 27 29  1  0
 27 30  2  0
 28 31  1  0
 29 32  2  0
 29 33  1  0
 31 34  1  0
 31 35  1  0
 31 36  1  0
 32 37  1  0
 33 38  1  0
 33 39  1  0
  6  7  1  0
 13 14  1  0
 28 30  1  0
 37 38  2  0
M  END
>  <MolRegNo>  (1) 
438314

>  <m>  (1) 
=

>  <Value>  (1) 
8200

>  <Unit>  (1) 
nM

>  <Type>  (1) 
IC50

>  <pValue>  (1) 
5.09

>  <Ligand Efficiency>  (1) 
0

>  <Binding Efficiency>  (1) 
0

>  <Surface Efficiency>  (1) 
0

>  <Assay Index>  (1) 
314783

>  <Assay Category>  (1) 


>  <Assay Organism>  (1) 


>  <Target ID>  (1) 
11365

>  <Target Name>  (1) 
Cytochrome P450 2D6

>  <Target Organism>  (1) 
Homo sapiens

>  <Target Description>  (1) 
Target is a single protein chain

>  <Sequence Accession>  (1) 
P10635

>  <Reference>  (1) 
Bioorg Med Chem Lett 18 (2), 576-585 (2008)

>  <Pubmed ID>  (1) 
18096386

>  <DOI>  (1) 
10.1016/j.bmcl.2007.11.067

$$$$
