4wnv_ligand_865
     RDKit          2D

 29 33  0  0  0  0  0  0  0  0999 V2000
    0.0000   -0.0000   -0.0000 F   0  0  0  0  0  0  0  0  0  0  0  0
    1.3201    0.6898   -0.0000 C   0  0  0  0  0  0  0  0  0  0  0  0
    1.3796    2.2121   -0.0000 C   0  0  0  0  0  0  0  0  0  0  0  0
    2.5807   -0.1070   -0.0000 C   0  0  0  0  0  0  0  0  0  0  0  0
    2.6997    2.9019   -0.0000 C   0  0  0  0  0  0  0  0  0  0  0  0
    3.9009    0.5946   -0.0000 C   0  0  0  0  0  0  0  0  0  0  0  0
    3.9484    2.1050   -0.0000 C   0  0  0  0  0  0  0  0  0  0  0  0
    5.2685    2.8067   -0.0000 C   0  0  0  0  0  0  0  0  0  0  0  0
    5.2447    4.3171   -0.0000 N   0  0  0  0  0  0  0  0  0  0  0  0
    6.1248    5.5421   -0.0000 C   0  0  0  0  0  0  0  0  0  0  0  0
    3.7938    4.7928   -0.0000 C   0  0  0  0  0  0  0  0  0  0  0  0
    5.2210    6.7789   -0.0000 N   0  0  0  0  0  0  0  0  0  0  0  0
    7.6114    5.5540   -0.0000 N   0  0  0  0  0  0  0  0  0  0  0  0
    3.7819    6.3151   -0.0000 C   0  0  0  0  0  0  0  0  0  0  0  0
    2.4856    4.0555   -0.0000 C   0  0  0  0  0  0  0  0  0  0  0  0
    8.3488    4.2695   -0.0000 C   0  0  0  0  0  0  0  0  0  0  0  0
    8.3369    6.8741   -0.0000 C   0  0  0  0  0  0  0  0  0  0  0  0
    2.4618    7.0644   -0.0000 C   0  0  0  0  0  0  0  0  0  0  0  0
    1.1774    4.8166   -0.0000 C   0  0  0  0  0  0  0  0  0  0  0  0
    9.8235    4.2814   -0.0000 C   0  0  0  0  0  0  0  0  0  0  0  0
    9.8235    6.8741   -0.0000 C   0  0  0  0  0  0  0  0  0  0  0  0
    1.1536    6.3270   -0.0000 C   0  0  0  0  0  0  0  0  0  0  0  0
   10.5727    5.5777   -0.0000 C   0  0  0  0  0  0  0  0  0  0  0  0
   12.0593    5.5777   -0.0000 N   0  0  0  0  0  0  0  0  0  0  0  0
   12.9394    6.8027   -0.0000 N   0  0  0  0  0  0  0  0  0  0  0  0
   12.9156    4.3766   -0.0000 C   0  0  0  0  0  0  0  0  0  0  0  0
   14.3547    6.3389   -0.0000 C   0  0  0  0  0  0  0  0  0  0  0  0
   14.3309    4.8404   -0.0000 C   0  0  0  0  0  0  0  0  0  0  0  0
   15.5321    3.9603   -0.0000 C   0  0  0  0  0  0  0  0  0  0  0  0
  1  2  1  0
  2  3  2  0
  2  4  1  0
  3  5  1  0
  4  6  2  0
  5  7  2  0
  7  8  1  0
  8  9  1  0
  9 10  1  0
  9 11  1  0
 10 12  2  0
 10 13  1  0
 11 14  2  0
 11 15  1  0
 13 16  1  0
 13 17  1  0
 14 18  1  0
 15 19  2  0
 16 20  1  0
 17 21  1  0
 18 22  2  0
 20 23  1  0
 23 24  1  0
 24 25  1  0
 24 26  1  0
 25 27  2  0
 26 28  2  0
 28 29  1  0
  6  7  1  0
 12 14  1  0
 19 22  1  0
 21 23  1  0
 27 28  1  0
M  END
>  <MolRegNo>  (1) 
566469

>  <m>  (1) 
=

>  <Value>  (1) 
5219

>  <Unit>  (1) 
nM

>  <Type>  (1) 
IC50

>  <pValue>  (1) 
5.28

>  <Ligand Efficiency>  (1) 
0

>  <Binding Efficiency>  (1) 
0

>  <Surface Efficiency>  (1) 
0

>  <Assay Index>  (1) 
429822

>  <Assay Category>  (1) 


>  <Assay Organism>  (1) 


>  <Target ID>  (1) 
11365

>  <Target Name>  (1) 
Cytochrome P450 2D6

>  <Target Organism>  (1) 
Homo sapiens

>  <Target Description>  (1) 
Target is a single protein chain

>  <Sequence Accession>  (1) 
P10635

>  <Reference>  (1) 
Bioorg Med Chem Lett 19 (15), 4380-4384 (2009)

>  <Pubmed ID>  (1) 
19553115

>  <DOI>  (1) 
10.1016/j.bmcl.2009.05.086

$$$$
