4wnv_ligand_621
     RDKit          2D

 23 26  0  0  0  0  0  0  0  0999 V2000
    0.0000   -0.0000   -0.0000 N   0  0  0  0  0  0  0  0  0  0  0  0
   -0.4740   -1.4101   -0.0000 C   0  0  0  0  0  0  0  0  0  0  0  0
   -0.9480   -2.8084   -0.0000 C   0  0  0  0  0  0  0  0  0  0  0  0
   -2.3937   -3.2587   -0.0000 C   0  0  0  0  0  0  0  0  0  0  0  0
   -0.0711   -4.0171   -0.0000 C   0  0  0  0  0  0  0  0  0  0  0  0
   -2.4055   -4.7518   -0.0000 C   0  0  0  0  0  0  0  0  0  0  0  0
   -3.6972   -2.4885   -0.0000 C   0  0  0  0  0  0  0  0  0  0  0  0
   -0.9717   -5.2258   -0.0000 N   0  0  0  0  0  0  0  0  0  0  0  0
   -3.7090   -5.4865   -0.0000 C   0  0  0  0  0  0  0  0  0  0  0  0
   -5.0007   -3.2350   -0.0000 C   0  0  0  0  0  0  0  0  0  0  0  0
   -5.0125   -4.7281   -0.0000 C   0  0  0  0  0  0  0  0  0  0  0  0
   -6.3042   -2.4766   -0.0000 C   0  0  0  0  0  0  0  0  0  0  0  0
   -7.6787   -3.0691   -0.0000 C   0  0  0  0  0  0  0  0  0  0  0  0
   -6.4701   -0.9835   -0.0000 C   0  0  0  0  0  0  0  0  0  0  0  0
   -5.0244   -1.7064   -0.0000 C   0  0  0  0  0  0  0  0  0  0  0  0
   -8.6860   -1.9434   -0.0000 N   0  0  0  0  0  0  0  0  0  0  0  0
   -7.9394   -0.6636   -0.0000 C   0  0  0  0  0  0  0  0  0  0  0  0
   -5.0481   -0.2014   -0.0000 C   0  0  0  0  0  0  0  0  0  0  0  0
   -3.7683    0.5688   -0.0000 C   0  0  0  0  0  0  0  0  0  0  0  0
   -6.3516    0.5451   -0.0000 C   0  0  0  0  0  0  0  0  0  0  0  0
   -3.7920    2.0737   -0.0000 C   0  0  0  0  0  0  0  0  0  0  0  0
   -6.3753    2.0500   -0.0000 C   0  0  0  0  0  0  0  0  0  0  0  0
   -5.1073    2.8203   -0.0000 C   0  0  0  0  0  0  0  0  0  0  0  0
  1  2  3  0
  2  3  1  0
  3  4  1  0
  3  5  2  0
  4  6  2  0
  4  7  1  0
  5  8  1  0
  6  9  1  0
  7 10  2  0
  9 11  2  0
 10 12  1  0
 12 13  1  0
 12 14  1  0
 12 15  1  0
 13 16  1  0
 14 17  1  0
 15 18  1  0
 18 19  2  0
 18 20  1  0
 19 21  1  0
 20 22  2  0
 21 23  2  0
  6  8  1  0
 10 11  1  0
 16 17  1  0
 22 23  1  0
M  END
>  <MolRegNo>  (1) 
515309

>  <m>  (1) 
=

>  <Value>  (1) 
800

>  <Unit>  (1) 
nM

>  <Type>  (1) 
IC50

>  <pValue>  (1) 
6.1

>  <Ligand Efficiency>  (1) 
0

>  <Binding Efficiency>  (1) 
0

>  <Surface Efficiency>  (1) 
0

>  <Assay Index>  (1) 
342264

>  <Assay Category>  (1) 


>  <Assay Organism>  (1) 


>  <Target ID>  (1) 
11365

>  <Target Name>  (1) 
Cytochrome P450 2D6

>  <Target Organism>  (1) 
Homo sapiens

>  <Target Description>  (1) 
Target is a single protein chain

>  <Sequence Accession>  (1) 
P10635

>  <Reference>  (1) 
Bioorg Med Chem Lett 18 (23), 6062-6066 (2008)

>  <Pubmed ID>  (1) 
18954985

>  <DOI>  (1) 
10.1016/j.bmcl.2008.10.025

$$$$
