4wnv_ligand_64
     RDKit          2D

 20 23  0  0  1  0  0  0  0  0999 V2000
    0.0000   -0.0000   -0.0000 O   0  0  0  0  0  0  0  0  0  0  0  0
    0.5545    0.9857   -0.0000 C   0  0  0  0  0  0  0  0  0  0  0  0
    0.6777   -1.2321   -0.0000 C   0  0  0  0  0  0  0  0  0  0  0  0
    2.0535    1.0268   -0.0000 C   0  0  0  0  0  0  0  0  0  0  0  0
   -0.2054    2.3000   -0.0000 C   0  0  0  0  0  0  0  0  0  0  0  0
    2.7928    2.3821   -0.0000 C   0  0  0  0  0  0  0  0  0  0  0  0
    0.6161    3.5321   -0.0000 C   0  0  0  0  0  0  0  0  0  0  0  0
    2.0330    3.5732   -0.0000 C   0  0  0  0  0  0  0  0  0  0  0  0
    4.2508    2.4026   -0.0000 C   0  0  0  0  0  0  0  0  0  0  0  0
    2.7517    4.9080   -0.0000 C   0  0  0  0  0  0  0  0  0  0  0  0
    4.8874    3.6142   -0.0000 C   0  0  0  0  0  0  0  0  0  0  0  0
    5.7088    3.0187   -0.0000 C   0  0  0  0  0  0  0  0  0  0  0  0
    4.8463    1.0268   -0.0000 C   0  0  0  0  0  0  0  0  0  0  0  0
    4.1892    4.9490   -0.0000 C   0  0  0  0  0  0  0  0  0  0  0  0
    6.4070    3.6348   -0.0000 C   0  0  0  0  0  0  0  0  0  0  0  0
    5.8526    5.6472   -0.0000 C   0  0  0  0  0  0  0  0  0  0  0  0
    6.4276    1.0473   -0.0000 C   0  0  0  0  0  0  0  0  0  0  0  0
    4.6410    6.1606   -0.0000 N   0  0  0  0  0  0  0  0  0  0  0  0
    7.2285    2.4232   -0.0000 C   0  0  0  0  0  0  0  0  0  0  0  0
    3.8607    7.2285   -0.0000 C   0  0  0  0  0  0  0  0  0  0  0  0
  1  2  1  0
  1  3  1  0
  2  4  2  0
  2  5  1  0
  4  6  1  0
  5  7  2  0
  6  8  2  0
  6  9  1  0
  8 10  1  0
  9 11  1  0
  9 12  1  6
  9 13  1  0
 14 10  1  6
 11 15  1  1
 12 16  1  0
 13 17  1  0
 14 18  1  0
 15 19  1  0
 18 20  1  0
  7  8  1  0
 11 14  1  0
 16 18  1  0
 17 19  1  0
M  END
>  <MolRegNo>  (1) 
77456

>  <m>  (1) 
=

>  <Value>  (1) 
1800

>  <Unit>  (1) 
nM

>  <Type>  (1) 
IC50

>  <pValue>  (1) 
5.75

>  <Ligand Efficiency>  (1) 
0

>  <Binding Efficiency>  (1) 
0

>  <Surface Efficiency>  (1) 
0

>  <Assay Index>  (1) 
51626

>  <Assay Category>  (1) 


>  <Assay Organism>  (1) 
Homo sapiens

>  <Target ID>  (1) 
11365

>  <Target Name>  (1) 
Cytochrome P450 2D6

>  <Target Organism>  (1) 
Homo sapiens

>  <Target Description>  (1) 
Target is a single protein chain

>  <Sequence Accession>  (1) 
P10635

>  <Reference>  (1) 
J Med Chem 46 (1), 74-86 (2003)

>  <Pubmed ID>  (1) 
12502361

>  <DOI>  (1) 
10.1021/jm0209578

$$$$
