4wnv_ligand_340
     RDKit          2D

 34 36  0  0  1  0  0  0  0  0999 V2000
    0.0000   -0.0000   -0.0000 S   0  0  0  0  0  0  0  0  0  0  0  0
    1.4909    0.0119   -0.0000 O   0  0  0  0  0  0  0  0  0  0  0  0
   -1.5147    0.0119   -0.0000 O   0  0  0  0  0  0  0  0  0  0  0  0
   -0.0119    1.5147   -0.0000 N   0  0  0  0  0  0  0  0  0  0  0  0
   -0.0239   -1.4909   -0.0000 C   0  0  0  0  0  0  0  0  0  0  0  0
    1.2762    2.2781   -0.0000 C   0  0  0  0  0  0  0  0  0  0  0  0
    2.5643    1.5386   -0.0000 C   0  0  0  0  0  0  0  0  0  0  0  0
    3.8524    2.3019   -0.0000 C   0  0  0  0  0  0  0  0  0  0  0  0
    2.5524    0.0358   -0.0000 C   0  0  0  0  0  0  0  0  0  0  0  0
    5.1406    1.5624   -0.0000 C   0  0  0  0  0  0  0  0  0  0  0  0
    3.8405   -0.7037   -0.0000 C   0  0  0  0  0  0  0  0  0  0  0  0
    5.1286    0.0716   -0.0000 C   0  0  0  0  0  0  0  0  0  0  0  0
    6.4168   -0.6679   -0.0000 N   0  0  0  0  0  0  0  0  0  0  0  0
    7.7049    0.0954   -0.0000 C   0  0  0  0  0  0  0  0  0  0  0  0
    7.6929    1.6102   -0.0000 O   0  0  0  0  0  0  0  0  0  0  0  0
    8.9930   -0.6441   -0.0000 C   0  0  0  0  0  0  0  0  0  0  0  0
   10.2811    0.1193   -0.0000 C   0  0  0  0  0  0  0  0  0  0  0  0
   10.2692    1.6340   -0.0000 O   0  0  0  0  0  0  0  0  0  0  0  0
   11.5692   -0.6202   -0.0000 N   0  0  0  0  0  0  0  0  0  0  0  0
   12.8574    0.1431   -0.0000 C   0  0  0  0  0  0  0  0  0  0  0  0
   11.5573   -2.1111   -0.0000 C   0  0  0  0  0  0  0  0  0  0  0  0
   12.8454    1.6579   -0.0000 C   0  0  0  0  0  0  0  0  0  0  0  0
   14.1455   -0.5964   -0.0000 C   0  0  0  0  0  0  0  0  0  0  0  0
   11.5335    2.4212   -0.0000 C   0  0  0  0  0  0  0  0  0  0  0  0
   14.1455    2.4212   -0.0000 C   0  0  0  0  0  0  0  0  0  0  0  0
   15.4336    0.1670   -0.0000 N   0  0  0  0  0  0  0  0  0  0  0  0
   11.5215    3.9359   -0.0000 C   0  0  0  0  0  0  0  0  0  0  0  0
   14.1336    3.9479   -0.0000 C   0  0  0  0  0  0  0  0  0  0  0  0
   16.7933   -0.4294   -0.0000 C   0  0  0  0  0  0  0  0  0  0  0  0
   15.5767    1.6817   -0.0000 C   0  0  0  0  0  0  0  0  0  0  0  0
   12.8097    4.6993   -0.0000 C   0  0  0  0  0  0  0  0  0  0  0  0
   17.7832    0.7037   -0.0000 C   0  0  0  0  0  0  0  0  0  0  0  0
   17.0318    2.0037   -0.0000 C   0  0  0  0  0  0  0  0  0  0  0  0
   19.2622    0.5606   -0.0000 O   0  0  0  0  0  0  0  0  0  0  0  0
  1  2  2  0
  1  3  2  0
  1  4  1  0
  1  5  1  0
  4  6  1  0
  6  7  1  0
  7  8  2  0
  7  9  1  0
  8 10  1  0
  9 11  2  0
 10 12  2  0
 12 13  1  0
 13 14  1  0
 14 15  2  0
 14 16  1  0
 16 17  1  0
 17 18  2  0
 17 19  1  0
 20 19  1  0
 19 21  1  0
 20 22  1  0
 20 23  1  1
 22 24  2  0
 22 25  1  0
 23 26  1  0
 24 27  1  0
 25 28  2  0
 26 29  1  0
 26 30  1  0
 27 31  2  0
 29 32  1  0
 30 33  1  0
 32 34  1  6
 11 12  1  0
 28 31  1  0
 32 33  1  0
M  END
>  <MolRegNo>  (1) 
384328

>  <m>  (1) 
=

>  <Value>  (1) 
5400

>  <Unit>  (1) 
nM

>  <Type>  (1) 
IC50

>  <pValue>  (1) 
5.27

>  <Ligand Efficiency>  (1) 
0

>  <Binding Efficiency>  (1) 
0

>  <Surface Efficiency>  (1) 
0

>  <Assay Index>  (1) 
287299

>  <Assay Category>  (1) 


>  <Assay Organism>  (1) 


>  <Target ID>  (1) 
11365

>  <Target Name>  (1) 
Cytochrome P450 2D6

>  <Target Organism>  (1) 
Homo sapiens

>  <Target Description>  (1) 
Target is a single protein chain

>  <Sequence Accession>  (1) 
P10635

>  <Reference>  (1) 
Bioorg Med Chem Lett 17 (7), 1951-1955 (2007)

>  <Pubmed ID>  (1) 
17307360

>  <DOI>  (1) 
10.1016/j.bmcl.2007.01.053

$$$$
