4wnv_ligand_87
     RDKit          2D

 51 56  0  0  1  0  0  0  0  0999 V2000
    0.0000   -0.0000   -0.0000 Cl  0  0  0  0  0  0  0  0  0  0  0  0
   -0.7799    1.3039   -0.0000 C   0  0  0  0  0  0  0  0  0  0  0  0
   -0.0487    2.6079   -0.0000 C   0  0  0  0  0  0  0  0  0  0  0  0
   -2.2910    1.3039   -0.0000 C   0  0  0  0  0  0  0  0  0  0  0  0
    1.4014    2.9369   -0.0000 O   0  0  0  0  0  0  0  0  0  0  0  0
   -0.8165    3.9362   -0.0000 C   0  0  0  0  0  0  0  0  0  0  0  0
   -3.0587    2.6200   -0.0000 C   0  0  0  0  0  0  0  0  0  0  0  0
    1.5598    4.4480   -0.0000 C   0  0  0  0  0  0  0  0  0  0  0  0
   -2.3276    3.9362   -0.0000 C   0  0  0  0  0  0  0  0  0  0  0  0
    0.1706    5.0695   -0.0000 C   0  0  0  0  0  0  0  0  0  0  0  0
    2.8394    5.2157   -0.0000 C   0  0  0  0  0  0  0  0  0  0  0  0
    4.1433    4.4724   -0.0000 N   0  0  0  0  0  0  0  0  0  0  0  0
    4.1311    2.9856   -0.0000 C   0  0  0  0  0  0  0  0  0  0  0  0
    5.4107    5.2401   -0.0000 C   0  0  0  0  0  0  0  0  0  0  0  0
    5.3985    2.2423   -0.0000 C   0  0  0  0  0  0  0  0  0  0  0  0
    6.6902    4.4967   -0.0000 C   0  0  0  0  0  0  0  0  0  0  0  0
    6.6781    3.0100   -0.0000 N   0  0  0  0  0  0  0  0  0  0  0  0
    5.3863    0.7555   -0.0000 C   0  0  0  0  0  0  0  0  0  0  0  0
    7.9820    2.2666   -0.0000 C   0  0  0  0  0  0  0  0  0  0  0  0
    4.0824    0.0122   -0.0000 O   0  0  0  0  0  0  0  0  0  0  0  0
    6.6902    0.0122   -0.0000 N   0  0  0  0  0  0  0  0  0  0  0  0
    9.2615    3.0344   -0.0000 C   0  0  0  0  0  0  0  0  0  0  0  0
    6.6781   -1.4745   -0.0000 C   0  0  0  0  0  0  0  0  0  0  0  0
    9.2494    4.5455   -0.0000 O   0  0  0  0  0  0  0  0  0  0  0  0
   10.5411    2.2910   -0.0000 C   0  0  0  0  0  0  0  0  0  0  0  0
    5.3498   -2.2179   -0.0000 C   0  0  0  0  0  0  0  0  0  0  0  0
   11.8207    3.0466   -0.0000 C   0  0  0  0  0  0  0  0  0  0  0  0
    5.0817   -3.7534   -0.0000 F   0  0  0  0  0  0  0  0  0  0  0  0
    4.1555   -2.8881   -0.0000 F   0  0  0  0  0  0  0  0  0  0  0  0
    3.8752   -1.6451   -0.0000 F   0  0  0  0  0  0  0  0  0  0  0  0
   13.1124    2.3032   -0.0000 C   0  0  0  0  0  0  0  0  0  0  0  0
   11.8085    4.5577   -0.0000 C   0  0  0  0  0  0  0  0  0  0  0  0
   13.0880    0.8165   -0.0000 O   0  0  0  0  0  0  0  0  0  0  0  0
   14.3920    3.0709   -0.0000 N   0  0  0  0  0  0  0  0  0  0  0  0
   10.7239    5.6422   -0.0000 C   0  0  0  0  0  0  0  0  0  0  0  0
   15.6715    2.3276   -0.0000 C   0  0  0  0  0  0  0  0  0  0  0  0
   11.1017    7.1290   -0.0000 C   0  0  0  0  0  0  0  0  0  0  0  0
    9.2494    5.2645   -0.0000 C   0  0  0  0  0  0  0  0  0  0  0  0
   15.6593    0.8409   -0.0000 C   0  0  0  0  0  0  0  0  0  0  0  0
   16.9511    3.0709   -0.0000 C   0  0  0  0  0  0  0  0  0  0  0  0
   10.0171    8.2135   -0.0000 N   0  0  0  0  0  0  0  0  0  0  0  0
    8.1526    6.3490   -0.0000 C   0  0  0  0  0  0  0  0  0  0  0  0
   16.9267    0.0853   -0.0000 C   0  0  0  0  0  0  0  0  0  0  0  0
   14.3554    0.1097   -0.0000 C   0  0  0  0  0  0  0  0  0  0  0  0
   16.9389    4.5820   -0.0000 O   0  0  0  0  0  0  0  0  0  0  0  0
   18.2306    2.3276   -0.0000 C   0  0  0  0  0  0  0  0  0  0  0  0
    8.5426    7.8358   -0.0000 C   0  0  0  0  0  0  0  0  0  0  0  0
   18.2306    0.8530   -0.0000 O   0  0  0  0  0  0  0  0  0  0  0  0
   16.9145   -1.3770   -0.0000 C   0  0  0  0  0  0  0  0  0  0  0  0
   14.3310   -1.3649   -0.0000 C   0  0  0  0  0  0  0  0  0  0  0  0
   15.6228   -2.0960   -0.0000 C   0  0  0  0  0  0  0  0  0  0  0  0
  1  2  1  0
  2  3  2  0
  2  4  1  0
  3  5  1  0
  3  6  1  0
  4  7  2  0
  5  8  1  0
  6  9  2  0
  6 10  1  0
  8 11  1  0
 11 12  1  0
 12 13  1  0
 12 14  1  0
 13 15  1  0
 14 16  1  0
 15 17  1  0
 15 18  1  6
 17 19  1  0
 18 20  2  0
 18 21  1  0
 19 22  1  0
 21 23  1  0
 22 24  1  1
 22 25  1  0
 23 26  1  0
 27 25  1  1
 26 28  1  0
 26 29  1  0
 26 30  1  0
 27 31  1  0
 27 32  1  0
 31 33  2  0
 31 34  1  0
 32 35  1  0
 36 34  1  6
 35 37  2  0
 35 38  1  0
 36 39  1  0
 36 40  1  0
 37 41  1  0
 38 42  2  0
 39 43  2  0
 39 44  1  0
 40 45  1  6
 40 46  1  0
 41 47  2  0
 43 48  1  0
 43 49  1  0
 44 50  2  0
 49 51  2  0
  7  9  1  0
  8 10  2  0
 16 17  1  0
 42 47  1  0
 46 48  1  0
 50 51  1  0
M  END
>  <MolRegNo>  (1) 
185827

>  <m>  (1) 
=

>  <Value>  (1) 
8800

>  <Unit>  (1) 
nM

>  <Type>  (1) 
IC50

>  <pValue>  (1) 
5.06

>  <Ligand Efficiency>  (1) 
0

>  <Binding Efficiency>  (1) 
0

>  <Surface Efficiency>  (1) 
0

>  <Assay Index>  (1) 
51637

>  <Assay Category>  (1) 


>  <Assay Organism>  (1) 
Homo sapiens

>  <Target ID>  (1) 
11365

>  <Target Name>  (1) 
Cytochrome P450 2D6

>  <Target Organism>  (1) 
Homo sapiens

>  <Target Description>  (1) 
Target is a single protein chain

>  <Sequence Accession>  (1) 
P10635

>  <Reference>  (1) 
Bioorg Med Chem Lett 13 (19), 3323-3326 (2003)

>  <Pubmed ID>  (1) 
12951118

>  <DOI>  (1) 
10.1016/s0960-894x(03)00680-2

$$$$
