4wnv_ligand_67
     RDKit          2D

 11 11  0  0  0  0  0  0  0  0999 V2000
    0.0000   -0.0000   -0.0000 O   0  0  0  0  0  0  0  0  0  0  0  0
   -1.3072    0.7537   -0.0000 N   0  0  0  0  0  0  0  0  0  0  0  0
   -2.6144    0.0236   -0.0000 C   0  0  0  0  0  0  0  0  0  0  0  0
   -3.9333    0.7655   -0.0000 N   0  0  0  0  0  0  0  0  0  0  0  0
   -5.2405    0.0236   -0.0000 C   0  0  0  0  0  0  0  0  0  0  0  0
   -5.2523   -1.4603   -0.0000 C   0  0  0  0  0  0  0  0  0  0  0  0
   -6.5477    0.7772   -0.0000 C   0  0  0  0  0  0  0  0  0  0  0  0
   -6.5595   -2.1904   -0.0000 C   0  0  0  0  0  0  0  0  0  0  0  0
   -7.8549    0.0471   -0.0000 C   0  0  0  0  0  0  0  0  0  0  0  0
   -7.8667   -1.4367   -0.0000 C   0  0  0  0  0  0  0  0  0  0  0  0
   -9.1739   -2.1669   -0.0000 C   0  0  0  0  0  0  0  0  0  0  0  0
  1  2  1  0
  2  3  2  0
  3  4  1  0
  4  5  1  0
  5  6  2  0
  5  7  1  0
  6  8  1  0
  7  9  2  0
  8 10  2  0
 10 11  1  0
  9 10  1  0
M  END
>  <MolRegNo>  (1) 
166307

>  <m>  (1) 
=

>  <Value>  (1) 
52000

>  <Unit>  (1) 
nM

>  <Type>  (1) 
IC50

>  <pValue>  (1) 
4.28

>  <Ligand Efficiency>  (1) 
0

>  <Binding Efficiency>  (1) 
0

>  <Surface Efficiency>  (1) 
0

>  <Assay Index>  (1) 
51644

>  <Assay Category>  (1) 


>  <Assay Organism>  (1) 
Homo sapiens

>  <Target ID>  (1) 
11365

>  <Target Name>  (1) 
Cytochrome P450 2D6

>  <Target Organism>  (1) 
Homo sapiens

>  <Target Description>  (1) 
Target is a single protein chain

>  <Sequence Accession>  (1) 
P10635

>  <Reference>  (1) 
Bioorg Med Chem Lett 11 (23), 2993-2995 (2001)

>  <Pubmed ID>  (1) 
11714595

>  <DOI>  (1) 
10.1016/s0960-894x(01)00614-x

$$$$
