4wnv_ligand_314
     RDKit          2D

 21 22  0  0  0  0  0  0  0  0999 V2000
    0.0000   -0.0000   -0.0000 O   0  0  0  0  0  0  0  0  0  0  0  0
    0.0000   -1.4941   -0.0000 C   0  0  0  0  0  0  0  0  0  0  0  0
   -1.3044   -2.2530   -0.0000 N   0  0  0  0  0  0  0  0  0  0  0  0
    1.3044   -2.2174   -0.0000 N   0  0  0  0  0  0  0  0  0  0  0  0
   -2.6324   -1.5059   -0.0000 C   0  0  0  0  0  0  0  0  0  0  0  0
   -1.3044   -3.7471   -0.0000 C   0  0  0  0  0  0  0  0  0  0  0  0
    1.3044   -3.7115   -0.0000 C   0  0  0  0  0  0  0  0  0  0  0  0
    2.5850   -1.4348   -0.0000 C   0  0  0  0  0  0  0  0  0  0  0  0
   -3.9368   -2.2530   -0.0000 C   0  0  0  0  0  0  0  0  0  0  0  0
   -2.6206   -4.4941   -0.0000 C   0  0  0  0  0  0  0  0  0  0  0  0
    2.5969   -4.4348   -0.0000 C   0  0  0  0  0  0  0  0  0  0  0  0
    3.8894   -2.1700   -0.0000 C   0  0  0  0  0  0  0  0  0  0  0  0
   -3.9368   -3.7471   -0.0000 N   0  0  0  0  0  0  0  0  0  0  0  0
    3.8894   -3.6641   -0.0000 C   0  0  0  0  0  0  0  0  0  0  0  0
   -5.2412   -4.4941   -0.0000 C   0  0  0  0  0  0  0  0  0  0  0  0
    5.1819   -4.3993   -0.0000 C   0  0  0  0  0  0  0  0  0  0  0  0
   -6.5574   -3.7352   -0.0000 C   0  0  0  0  0  0  0  0  0  0  0  0
   -5.2412   -5.9882   -0.0000 C   0  0  0  0  0  0  0  0  0  0  0  0
    6.4625   -5.1345   -0.0000 C   0  0  0  0  0  0  0  0  0  0  0  0
    5.9171   -3.0830   -0.0000 C   0  0  0  0  0  0  0  0  0  0  0  0
    4.4348   -5.7036   -0.0000 C   0  0  0  0  0  0  0  0  0  0  0  0
  1  2  2  0
  2  3  1  0
  2  4  1  0
  3  5  1  0
  3  6  1  0
  4  7  1  0
  4  8  1  0
  5  9  1  0
  6 10  1  0
  7 11  1  0
  8 12  1  0
  9 13  1  0
 11 14  1  0
 13 15  1  0
 14 16  1  0
 15 17  1  0
 15 18  1  0
 16 19  1  0
 16 20  1  0
 16 21  1  0
 10 13  1  0
 12 14  1  0
M  END
>  <MolRegNo>  (1) 
364089

>  <m>  (1) 
=

>  <Value>  (1) 
7000

>  <Unit>  (1) 
nM

>  <Type>  (1) 
IC50

>  <pValue>  (1) 
5.16

>  <Ligand Efficiency>  (1) 
0

>  <Binding Efficiency>  (1) 
0

>  <Surface Efficiency>  (1) 
0

>  <Assay Index>  (1) 
271045

>  <Assay Category>  (1) 


>  <Assay Organism>  (1) 
Homo sapiens

>  <Target ID>  (1) 
11365

>  <Target Name>  (1) 
Cytochrome P450 2D6

>  <Target Organism>  (1) 
Homo sapiens

>  <Target Description>  (1) 
Target is a single protein chain

>  <Sequence Accession>  (1) 
P10635

>  <Reference>  (1) 
Bioorg Med Chem Lett 16 (20), 5303-5308 (2006)

>  <Pubmed ID>  (1) 
16908150

>  <DOI>  (1) 
10.1016/j.bmcl.2006.07.093

$$$$
