4wnv_ligand_640
     RDKit          2D

 39 43  0  0  0  0  0  0  0  0999 V2000
    0.0000   -0.0000   -0.0000 Cl  0  0  0  0  0  0  0  0  0  0  0  0
   -1.3056    0.7596   -0.0000 C   0  0  0  0  0  0  0  0  0  0  0  0
   -1.3175    2.2789   -0.0000 C   0  0  0  0  0  0  0  0  0  0  0  0
   -2.6232    0.0237   -0.0000 C   0  0  0  0  0  0  0  0  0  0  0  0
   -0.0356    3.0386   -0.0000 C   0  0  0  0  0  0  0  0  0  0  0  0
   -2.6232    3.0386   -0.0000 C   0  0  0  0  0  0  0  0  0  0  0  0
   -3.9288    0.7834   -0.0000 C   0  0  0  0  0  0  0  0  0  0  0  0
    1.2463    2.3027   -0.0000 O   0  0  0  0  0  0  0  0  0  0  0  0
   -0.0475    4.5460   -0.0000 N   0  0  0  0  0  0  0  0  0  0  0  0
   -3.9288    2.3027   -0.0000 C   0  0  0  0  0  0  0  0  0  0  0  0
   -5.2344    0.0475   -0.0000 N   0  0  0  0  0  0  0  0  0  0  0  0
   -1.4006    5.1988   -0.0000 C   0  0  0  0  0  0  0  0  0  0  0  0
    1.2938    5.2226   -0.0000 C   0  0  0  0  0  0  0  0  0  0  0  0
   -6.6113    0.6647   -0.0000 N   0  0  0  0  0  0  0  0  0  0  0  0
   -5.4006   -1.4243   -0.0000 C   0  0  0  0  0  0  0  0  0  0  0  0
   -1.7567    6.6706   -0.0000 C   0  0  0  0  0  0  0  0  0  0  0  0
   -2.4926    4.1781   -0.0000 C   0  0  0  0  0  0  0  0  0  0  0  0
    1.6024    6.6944   -0.0000 C   0  0  0  0  0  0  0  0  0  0  0  0
   -7.6202   -0.4392   -0.0000 C   0  0  0  0  0  0  0  0  0  0  0  0
   -6.8724   -1.7211   -0.0000 C   0  0  0  0  0  0  0  0  0  0  0  0
   -0.8427    7.8576   -0.0000 C   0  0  0  0  0  0  0  0  0  0  0  0
   -3.2048    7.1098   -0.0000 C   0  0  0  0  0  0  0  0  0  0  0  0
   -3.9407    4.6172   -0.0000 C   0  0  0  0  0  0  0  0  0  0  0  0
    0.6410    7.8695   -0.0000 C   0  0  0  0  0  0  0  0  0  0  0  0
   -9.1158   -0.2730   -0.0000 C   0  0  0  0  0  0  0  0  0  0  0  0
   -1.5074    9.2107   -0.0000 C   0  0  0  0  0  0  0  0  0  0  0  0
   -4.3086    6.0890   -0.0000 C   0  0  0  0  0  0  0  0  0  0  0  0
    0.6172    9.3887   -0.0000 F   0  0  0  0  0  0  0  0  0  0  0  0
    2.1246    7.8932   -0.0000 F   0  0  0  0  0  0  0  0  0  0  0  0
   -0.6884   10.4689   -0.0000 C   0  0  0  0  0  0  0  0  0  0  0  0
   -1.3531   11.8220   -0.0000 O   0  0  0  0  0  0  0  0  0  0  0  0
    0.7953   10.4807   -0.0000 N   0  0  0  0  0  0  0  0  0  0  0  0
    1.5312   11.7864   -0.0000 C   0  0  0  0  0  0  0  0  0  0  0  0
    3.0148   11.7983   -0.0000 C   0  0  0  0  0  0  0  0  0  0  0  0
    3.7389   10.5045   -0.0000 N   0  0  0  0  0  0  0  0  0  0  0  0
    3.7508   13.0920   -0.0000 C   0  0  0  0  0  0  0  0  0  0  0  0
    5.2226   10.5163   -0.0000 N   0  0  0  0  0  0  0  0  0  0  0  0
    5.2344   13.1039   -0.0000 C   0  0  0  0  0  0  0  0  0  0  0  0
    5.9703   11.8220   -0.0000 C   0  0  0  0  0  0  0  0  0  0  0  0
  1  2  1  0
  2  3  2  0
  2  4  1  0
  3  5  1  0
  3  6  1  0
  4  7  2  0
  5  8  2  0
  5  9  1  0
  6 10  2  0
  7 11  1  0
  9 12  1  0
  9 13  1  0
 11 14  1  0
 11 15  1  0
 12 16  2  0
 12 17  1  0
 13 18  1  0
 14 19  2  0
 15 20  2  0
 16 21  1  0
 16 22  1  0
 17 23  2  0
 18 24  1  0
 19 25  1  0
 21 26  2  0
 22 27  2  0
 24 28  1  0
 24 29  1  0
 26 30  1  0
 30 31  2  0
 30 32  1  0
 32 33  1  0
 33 34  1  0
 34 35  2  0
 34 36  1  0
 35 37  1  0
 36 38  2  0
 37 39  2  0
  7 10  1  0
 19 20  1  0
 21 24  1  0
 23 27  1  0
 38 39  1  0
M  END
>  <MolRegNo>  (1) 
498689

>  <m>  (1) 
=

>  <Value>  (1) 
8900

>  <Unit>  (1) 
nM

>  <Type>  (1) 
IC50

>  <pValue>  (1) 
5.05

>  <Ligand Efficiency>  (1) 
0

>  <Binding Efficiency>  (1) 
0

>  <Surface Efficiency>  (1) 
0

>  <Assay Index>  (1) 
411941

>  <Assay Category>  (1) 


>  <Assay Organism>  (1) 


>  <Target ID>  (1) 
11365

>  <Target Name>  (1) 
Cytochrome P450 2D6

>  <Target Organism>  (1) 
Homo sapiens

>  <Target Description>  (1) 
Target is a single protein chain

>  <Sequence Accession>  (1) 
P10635

>  <Reference>  (1) 
Bioorg Med Chem 17 (8), 3130-3141 (2009)

>  <Pubmed ID>  (1) 
19321349

>  <DOI>  (1) 
10.1016/j.bmc.2009.03.001

$$$$
