4wnv_ligand_553
     RDKit          2D

 22 25  0  0  0  0  0  0  0  0999 V2000
    0.0000   -0.0000   -0.0000 O   0  0  0  0  0  0  0  0  0  0  0  0
    1.2960    0.7609   -0.0000 C   0  0  0  0  0  0  0  0  0  0  0  0
   -1.3197    0.7609   -0.0000 C   0  0  0  0  0  0  0  0  0  0  0  0
    2.5919    0.0238   -0.0000 C   0  0  0  0  0  0  0  0  0  0  0  0
    1.2841    2.2828   -0.0000 C   0  0  0  0  0  0  0  0  0  0  0  0
    3.8879    0.7966   -0.0000 C   0  0  0  0  0  0  0  0  0  0  0  0
    2.5681    3.0437   -0.0000 C   0  0  0  0  0  0  0  0  0  0  0  0
    3.8760    2.3185   -0.0000 C   0  0  0  0  0  0  0  0  0  0  0  0
    5.1838    0.0594   -0.0000 C   0  0  0  0  0  0  0  0  0  0  0  0
    5.1601    3.0913   -0.0000 C   0  0  0  0  0  0  0  0  0  0  0  0
    6.4798    0.8323   -0.0000 C   0  0  0  0  0  0  0  0  0  0  0  0
    6.4560    2.3541   -0.0000 C   0  0  0  0  0  0  0  0  0  0  0  0
    7.7401    3.1269   -0.0000 C   0  0  0  0  0  0  0  0  0  0  0  0
    9.0361    2.3898   -0.0000 C   0  0  0  0  0  0  0  0  0  0  0  0
    7.7163    4.6369   -0.0000 C   0  0  0  0  0  0  0  0  0  0  0  0
   10.3201    3.1507   -0.0000 C   0  0  0  0  0  0  0  0  0  0  0  0
    9.0361    0.9036   -0.0000 C   0  0  0  0  0  0  0  0  0  0  0  0
    9.0004    5.4097   -0.0000 N   0  0  0  0  0  0  0  0  0  0  0  0
   10.2963    4.6726   -0.0000 C   0  0  0  0  0  0  0  0  0  0  0  0
   11.6042    2.4255   -0.0000 C   0  0  0  0  0  0  0  0  0  0  0  0
   10.3201    0.1665   -0.0000 C   0  0  0  0  0  0  0  0  0  0  0  0
   11.6042    0.9393   -0.0000 C   0  0  0  0  0  0  0  0  0  0  0  0
  1  2  1  0
  1  3  1  0
  2  4  2  0
  2  5  1  0
  4  6  1  0
  5  7  2  0
  6  8  2  0
  6  9  1  0
  8 10  1  0
  9 11  2  0
 10 12  2  0
 12 13  1  0
 13 14  1  0
 13 15  2  0
 14 16  2  0
 14 17  1  0
 15 18  1  0
 16 19  1  0
 16 20  1  0
 17 21  2  0
 20 22  2  0
  7  8  1  0
 11 12  1  0
 18 19  2  0
 21 22  1  0
M  END
>  <MolRegNo>  (1) 
510497

>  <m>  (1) 
=

>  <Value>  (1) 
33110

>  <Unit>  (1) 
nM

>  <Type>  (1) 
IC50

>  <pValue>  (1) 
4.48

>  <Ligand Efficiency>  (1) 
0

>  <Binding Efficiency>  (1) 
0

>  <Surface Efficiency>  (1) 
0

>  <Assay Index>  (1) 
359009

>  <Assay Category>  (1) 


>  <Assay Organism>  (1) 
Homo sapiens

>  <Target ID>  (1) 
11365

>  <Target Name>  (1) 
Cytochrome P450 2D6

>  <Target Organism>  (1) 
Homo sapiens

>  <Target Description>  (1) 
Target is a single protein chain

>  <Sequence Accession>  (1) 
P10635

>  <Reference>  (1) 
J Med Chem 51 (16), 5064-5074 (2008)

>  <Pubmed ID>  (1) 
18672861

>  <DOI>  (1) 
10.1021/jm800377h

$$$$
