4wnv_ligand_981
     RDKit          2D

 29 32  0  0  0  0  0  0  0  0999 V2000
    0.0000   -0.0000   -0.0000 Cl  0  0  0  0  0  0  0  0  0  0  0  0
    1.2878    0.7751   -0.0000 C   0  0  0  0  0  0  0  0  0  0  0  0
    1.2759    2.3013   -0.0000 C   0  0  0  0  0  0  0  0  0  0  0  0
    2.5875    0.0358   -0.0000 C   0  0  0  0  0  0  0  0  0  0  0  0
    2.5637    3.0645   -0.0000 C   0  0  0  0  0  0  0  0  0  0  0  0
    3.8753    0.8108   -0.0000 C   0  0  0  0  0  0  0  0  0  0  0  0
    3.8515    2.3252   -0.0000 C   0  0  0  0  0  0  0  0  0  0  0  0
    5.1393    3.0883   -0.0000 N   0  0  0  0  0  0  0  0  0  0  0  0
    6.4390    2.3490   -0.0000 C   0  0  0  0  0  0  0  0  0  0  0  0
    6.4271    0.8585   -0.0000 O   0  0  0  0  0  0  0  0  0  0  0  0
    7.7268    3.1122   -0.0000 N   0  0  0  0  0  0  0  0  0  0  0  0
    9.0146    2.3729   -0.0000 C   0  0  0  0  0  0  0  0  0  0  0  0
    7.7149    4.6265   -0.0000 C   0  0  0  0  0  0  0  0  0  0  0  0
   10.3024    3.1360   -0.0000 C   0  0  0  0  0  0  0  0  0  0  0  0
    9.0027    5.4016   -0.0000 C   0  0  0  0  0  0  0  0  0  0  0  0
   11.5902    2.3967   -0.0000 C   0  0  0  0  0  0  0  0  0  0  0  0
   10.2905    4.6504   -0.0000 C   0  0  0  0  0  0  0  0  0  0  0  0
   11.5902    3.9111   -0.0000 C   0  0  0  0  0  0  0  0  0  0  0  0
   11.5663    0.9062   -0.0000 C   0  0  0  0  0  0  0  0  0  0  0  0
   12.8780    3.1599   -0.0000 C   0  0  0  0  0  0  0  0  0  0  0  0
   11.5663    5.4254   -0.0000 C   0  0  0  0  0  0  0  0  0  0  0  0
   12.8541    0.1669   -0.0000 C   0  0  0  0  0  0  0  0  0  0  0  0
   14.1658    2.4206   -0.0000 C   0  0  0  0  0  0  0  0  0  0  0  0
   12.8541    6.2005   -0.0000 C   0  0  0  0  0  0  0  0  0  0  0  0
   14.1539    0.9301   -0.0000 C   0  0  0  0  0  0  0  0  0  0  0  0
   12.8422    7.7268   -0.0000 N   0  0  0  0  0  0  0  0  0  0  0  0
   14.2731    5.7593   -0.0000 N   0  0  0  0  0  0  0  0  0  0  0  0
   14.2612    8.2157   -0.0000 N   0  0  0  0  0  0  0  0  0  0  0  0
   15.1436    6.9994   -0.0000 N   0  0  0  0  0  0  0  0  0  0  0  0
  1  2  1  0
  2  3  2  0
  2  4  1  0
  3  5  1  0
  4  6  2  0
  5  7  2  0
  7  8  1  0
  8  9  1  0
  9 10  2  0
  9 11  1  0
 11 12  1  0
 11 13  1  0
 12 14  1  0
 13 15  1  0
 14 16  1  0
 14 17  1  0
 14 18  1  0
 16 19  2  0
 16 20  1  0
 18 21  1  0
 19 22  1  0
 20 23  2  0
 21 24  1  0
 22 25  2  0
 24 26  2  0
 24 27  1  0
 26 28  1  0
 27 29  1  0
  6  7  1  0
 15 17  1  0
 23 25  1  0
 28 29  1  0
M  END
>  <MolRegNo>  (1) 
618053

>  <m>  (1) 
=

>  <Value>  (1) 
10000

>  <Unit>  (1) 
nM

>  <Type>  (1) 
IC50

>  <pValue>  (1) 
5

>  <Ligand Efficiency>  (1) 
0

>  <Binding Efficiency>  (1) 
0

>  <Surface Efficiency>  (1) 
0

>  <Assay Index>  (1) 
466911

>  <Assay Category>  (1) 


>  <Assay Organism>  (1) 


>  <Target ID>  (1) 
11365

>  <Target Name>  (1) 
Cytochrome P450 2D6

>  <Target Organism>  (1) 
Homo sapiens

>  <Target Description>  (1) 
Target is a single protein chain

>  <Sequence Accession>  (1) 
P10635

>  <Reference>  (1) 
Bioorg Med Chem Lett 19 (18), 5314-5320 (2009)

>  <Pubmed ID>  (1) 
19682899

>  <DOI>  (1) 
10.1016/j.bmcl.2009.07.138

$$$$
