4wnv_ligand_810
     RDKit          2D

 29 32  0  0  0  0  0  0  0  0999 V2000
    0.0000   -0.0000   -0.0000 F   0  0  0  0  0  0  0  0  0  0  0  0
   -1.4659   -0.3436   -0.0000 C   0  0  0  0  0  0  0  0  0  0  0  0
   -2.5195    0.7444   -0.0000 C   0  0  0  0  0  0  0  0  0  0  0  0
   -1.8897   -1.7751   -0.0000 C   0  0  0  0  0  0  0  0  0  0  0  0
   -2.1187    2.1989   -0.0000 C   0  0  0  0  0  0  0  0  0  0  0  0
   -3.9855    0.4008   -0.0000 C   0  0  0  0  0  0  0  0  0  0  0  0
   -3.3556   -2.1187   -0.0000 C   0  0  0  0  0  0  0  0  0  0  0  0
   -3.1723    3.2869   -0.0000 C   0  0  0  0  0  0  0  0  0  0  0  0
   -0.6757    2.5654   -0.0000 C   0  0  0  0  0  0  0  0  0  0  0  0
   -4.4092   -1.0307   -0.0000 C   0  0  0  0  0  0  0  0  0  0  0  0
   -3.7793   -3.5503   -0.0000 C   0  0  0  0  0  0  0  0  0  0  0  0
   -2.7715    4.7413   -0.0000 C   0  0  0  0  0  0  0  0  0  0  0  0
   -4.6383    2.9433   -0.0000 C   0  0  0  0  0  0  0  0  0  0  0  0
   -0.2749    4.0198   -0.0000 C   0  0  0  0  0  0  0  0  0  0  0  0
   -5.2452   -3.8938   -0.0000 O   0  0  0  0  0  0  0  0  0  0  0  0
   -2.7486   -4.6154   -0.0000 N   0  0  0  0  0  0  0  0  0  0  0  0
   -1.3285    5.1078   -0.0000 O   0  0  0  0  0  0  0  0  0  0  0  0
   -3.8251    5.8293   -0.0000 C   0  0  0  0  0  0  0  0  0  0  0  0
   -5.6919    4.0313   -0.0000 C   0  0  0  0  0  0  0  0  0  0  0  0
    0.1260    5.4743   -0.0000 C   0  0  0  0  0  0  0  0  0  0  0  0
    0.7559    2.9547   -0.0000 C   0  0  0  0  0  0  0  0  0  0  0  0
   -3.1723   -6.0469   -0.0000 C   0  0  0  0  0  0  0  0  0  0  0  0
   -1.3056   -4.2489   -0.0000 C   0  0  0  0  0  0  0  0  0  0  0  0
   -5.2910    5.4857   -0.0000 C   0  0  0  0  0  0  0  0  0  0  0  0
    1.5690    5.8408   -0.0000 C   0  0  0  0  0  0  0  0  0  0  0  0
    2.1989    3.3212   -0.0000 C   0  0  0  0  0  0  0  0  0  0  0  0
   -2.1416   -7.1120   -0.0000 C   0  0  0  0  0  0  0  0  0  0  0  0
   -0.2749   -5.3140   -0.0000 C   0  0  0  0  0  0  0  0  0  0  0  0
    2.5997    4.7757   -0.0000 N   0  0  0  0  0  0  0  0  0  0  0  0
  1  2  1  0
  2  3  2  0
  2  4  1  0
  3  5  1  0
  3  6  1  0
  4  7  2  0
  5  8  1  0
  5  9  2  0
  6 10  2  0
  7 11  1  0
  8 12  2  0
  8 13  1  0
  9 14  1  0
 11 15  2  0
 11 16  1  0
 12 17  1  0
 12 18  1  0
 13 19  2  0
 14 20  1  0
 14 21  1  0
 16 22  1  0
 16 23  1  0
 18 24  2  0
 20 25  1  0
 21 26  1  0
 22 27  1  0
 23 28  1  0
 25 29  1  0
  7 10  1  0
 14 17  1  0
 19 24  1  0
 26 29  1  0
M  END
>  <MolRegNo>  (1) 
559135

>  <m>  (1) 
=

>  <Value>  (1) 
7500

>  <Unit>  (1) 
nM

>  <Type>  (1) 
IC50

>  <pValue>  (1) 
5.12

>  <Ligand Efficiency>  (1) 
0

>  <Binding Efficiency>  (1) 
0

>  <Surface Efficiency>  (1) 
0

>  <Assay Index>  (1) 
428577

>  <Assay Category>  (1) 


>  <Assay Organism>  (1) 
Homo sapiens

>  <Target ID>  (1) 
11365

>  <Target Name>  (1) 
Cytochrome P450 2D6

>  <Target Organism>  (1) 
Homo sapiens

>  <Target Description>  (1) 
Target is a single protein chain

>  <Sequence Accession>  (1) 
P10635

>  <Reference>  (1) 
J Med Chem 52 (18), 5685-5702 (2009)

>  <Pubmed ID>  (1) 
19694468

>  <DOI>  (1) 
10.1021/jm900773n

$$$$
