4wnv_ligand_716
     RDKit          2D

 20 21  0  0  0  0  0  0  0  0999 V2000
    0.0000   -0.0000   -0.0000 Cl  0  0  0  0  0  0  0  0  0  0  0  0
    1.2883    0.7564   -0.0000 C   0  0  0  0  0  0  0  0  0  0  0  0
    1.2883    2.2693   -0.0000 C   0  0  0  0  0  0  0  0  0  0  0  0
    2.5766    0.0118   -0.0000 C   0  0  0  0  0  0  0  0  0  0  0  0
    2.5648    3.0258   -0.0000 C   0  0  0  0  0  0  0  0  0  0  0  0
   -0.0236    3.0258   -0.0000 C   0  0  0  0  0  0  0  0  0  0  0  0
    3.8650    0.7801   -0.0000 C   0  0  0  0  0  0  0  0  0  0  0  0
    3.8413    2.2930   -0.0000 C   0  0  0  0  0  0  0  0  0  0  0  0
   -0.0355    4.5387   -0.0000 N   0  0  0  0  0  0  0  0  0  0  0  0
    5.1533    0.0355   -0.0000 Cl  0  0  0  0  0  0  0  0  0  0  0  0
   -1.3474    5.3069   -0.0000 C   0  0  0  0  0  0  0  0  0  0  0  0
    1.2529    5.3069   -0.0000 C   0  0  0  0  0  0  0  0  0  0  0  0
   -1.3592    6.8198   -0.0000 O   0  0  0  0  0  0  0  0  0  0  0  0
   -2.6594    4.5623   -0.0000 C   0  0  0  0  0  0  0  0  0  0  0  0
    1.3947    6.8080   -0.0000 C   0  0  0  0  0  0  0  0  0  0  0  0
    2.6003    4.7042   -0.0000 C   0  0  0  0  0  0  0  0  0  0  0  0
   -3.9713    5.3306   -0.0000 C   0  0  0  0  0  0  0  0  0  0  0  0
   -2.6712    3.0731   -0.0000 C   0  0  0  0  0  0  0  0  0  0  0  0
    2.8485    7.1272   -0.0000 N   0  0  0  0  0  0  0  0  0  0  0  0
    3.5931    5.8270   -0.0000 C   0  0  0  0  0  0  0  0  0  0  0  0
  1  2  1  0
  2  3  2  0
  2  4  1  0
  3  5  1  0
  3  6  1  0
  4  7  2  0
  5  8  2  0
  6  9  1  0
  7 10  1  0
  9 11  1  0
 12  9  1  6
 11 13  2  0
 11 14  1  0
 12 15  1  0
 12 16  1  0
 14 17  1  0
 14 18  1  0
 15 19  1  0
 16 20  1  0
  7  8  1  0
 19 20  1  0
M  END
>  <MolRegNo>  (1) 
489072

>  <m>  (1) 
=

>  <Value>  (1) 
21800

>  <Unit>  (1) 
nM

>  <Type>  (1) 
IC50

>  <pValue>  (1) 
4.66

>  <Ligand Efficiency>  (1) 
0

>  <Binding Efficiency>  (1) 
0

>  <Surface Efficiency>  (1) 
0

>  <Assay Index>  (1) 
362383

>  <Assay Category>  (1) 


>  <Assay Organism>  (1) 


>  <Target ID>  (1) 
11365

>  <Target Name>  (1) 
Cytochrome P450 2D6

>  <Target Organism>  (1) 
Homo sapiens

>  <Target Description>  (1) 
Target is a single protein chain

>  <Sequence Accession>  (1) 
P10635

>  <Reference>  (1) 
Bioorg Med Chem Lett 18 (15), 4308-4311 (2008)

>  <Pubmed ID>  (1) 
18625557

>  <DOI>  (1) 
10.1016/j.bmcl.2008.06.078

$$$$
