4wnv_ligand_370
     RDKit          2D

 38 41  0  0  0  0  0  0  0  0999 V2000
    0.0000   -0.0000   -0.0000 F   0  0  0  0  0  0  0  0  0  0  0  0
   -0.0118    1.5034   -0.0000 C   0  0  0  0  0  0  0  0  0  0  0  0
    1.2667    2.2611   -0.0000 C   0  0  0  0  0  0  0  0  0  0  0  0
   -1.3140    2.2611   -0.0000 C   0  0  0  0  0  0  0  0  0  0  0  0
    1.2548    3.7764   -0.0000 C   0  0  0  0  0  0  0  0  0  0  0  0
   -1.3259    3.7645   -0.0000 C   0  0  0  0  0  0  0  0  0  0  0  0
    2.5334    4.5459   -0.0000 F   0  0  0  0  0  0  0  0  0  0  0  0
   -0.0474    4.5340   -0.0000 C   0  0  0  0  0  0  0  0  0  0  0  0
   -2.6281    4.5222   -0.0000 C   0  0  0  0  0  0  0  0  0  0  0  0
   -3.9303    3.7882   -0.0000 O   0  0  0  0  0  0  0  0  0  0  0  0
   -2.6399    6.0256   -0.0000 C   0  0  0  0  0  0  0  0  0  0  0  0
   -2.6517    3.0424   -0.0000 C   0  0  0  0  0  0  0  0  0  0  0  0
   -5.2325    4.5459   -0.0000 C   0  0  0  0  0  0  0  0  0  0  0  0
   -1.3614    6.7833   -0.0000 O   0  0  0  0  0  0  0  0  0  0  0  0
   -3.9421    6.7833   -0.0000 N   0  0  0  0  0  0  0  0  0  0  0  0
   -5.2443    6.0493   -0.0000 C   0  0  0  0  0  0  0  0  0  0  0  0
   -6.5347    3.8001   -0.0000 C   0  0  0  0  0  0  0  0  0  0  0  0
   -3.9539    8.2867   -0.0000 C   0  0  0  0  0  0  0  0  0  0  0  0
   -6.5465    6.7951   -0.0000 C   0  0  0  0  0  0  0  0  0  0  0  0
   -7.8369    4.5577   -0.0000 C   0  0  0  0  0  0  0  0  0  0  0  0
   -2.6754    9.0444   -0.0000 C   0  0  0  0  0  0  0  0  0  0  0  0
   -7.8369    6.0611   -0.0000 C   0  0  0  0  0  0  0  0  0  0  0  0
   -2.6873   10.5478   -0.0000 C   0  0  0  0  0  0  0  0  0  0  0  0
   -9.1391    6.8069   -0.0000 C   0  0  0  0  0  0  0  0  0  0  0  0
   -1.4087   11.3173   -0.0000 O   0  0  0  0  0  0  0  0  0  0  0  0
   -9.1509    8.3222   -0.0000 C   0  0  0  0  0  0  0  0  0  0  0  0
  -10.4531    6.0730   -0.0000 C   0  0  0  0  0  0  0  0  0  0  0  0
   -1.4206   12.8207   -0.0000 C   0  0  0  0  0  0  0  0  0  0  0  0
  -10.4649    9.0799   -0.0000 N   0  0  0  0  0  0  0  0  0  0  0  0
   -7.8724    9.0917   -0.0000 N   0  0  0  0  0  0  0  0  0  0  0  0
  -11.7553    6.8306   -0.0000 N   0  0  0  0  0  0  0  0  0  0  0  0
  -10.4649    4.5932   -0.0000 C   0  0  0  0  0  0  0  0  0  0  0  0
   -1.4443   14.3360   -0.0000 F   0  0  0  0  0  0  0  0  0  0  0  0
    0.0592   12.8444   -0.0000 F   0  0  0  0  0  0  0  0  0  0  0  0
   -2.9240   12.8207   -0.0000 F   0  0  0  0  0  0  0  0  0  0  0  0
  -11.7671    8.3459   -0.0000 C   0  0  0  0  0  0  0  0  0  0  0  0
  -11.7671    3.8592   -0.0000 C   0  0  0  0  0  0  0  0  0  0  0  0
  -13.0693    9.1036   -0.0000 N   0  0  0  0  0  0  0  0  0  0  0  0
  1  2  1  0
  2  3  2  0
  2  4  1  0
  3  5  1  0
  4  6  2  0
  5  7  1  0
  5  8  2  0
  6  9  1  0
  9 10  1  0
  9 11  1  0
  9 12  1  0
 10 13  1  0
 11 14  2  0
 11 15  1  0
 13 16  2  0
 13 17  1  0
 15 18  1  0
 16 19  1  0
 17 20  2  0
 18 21  1  0
 19 22  2  0
 21 23  1  0
 22 24  1  0
 23 25  1  0
 24 26  2  0
 24 27  1  0
 25 28  1  0
 26 29  1  0
 26 30  1  0
 27 31  2  0
 27 32  1  0
 28 33  1  0
 28 34  1  0
 28 35  1  0
 29 36  2  0
 32 37  1  0
 36 38  1  0
  6  8  1  0
 15 16  1  0
 20 22  1  0
 31 36  1  0
M  END
>  <MolRegNo>  (1) 
405851

>  <m>  (1) 
=

>  <Value>  (1) 
3220

>  <Unit>  (1) 
nM

>  <Type>  (1) 
IC50

>  <pValue>  (1) 
5.49

>  <Ligand Efficiency>  (1) 
0

>  <Binding Efficiency>  (1) 
0

>  <Surface Efficiency>  (1) 
0

>  <Assay Index>  (1) 
297171

>  <Assay Category>  (1) 


>  <Assay Organism>  (1) 


>  <Target ID>  (1) 
11365

>  <Target Name>  (1) 
Cytochrome P450 2D6

>  <Target Organism>  (1) 
Homo sapiens

>  <Target Description>  (1) 
Target is a single protein chain

>  <Sequence Accession>  (1) 
P10635

>  <Reference>  (1) 
Bioorg Med Chem 15 (17), 5912-5949 (2007)

>  <Pubmed ID>  (1) 
17574423

>  <DOI>  (1) 
10.1016/j.bmc.2007.05.069

$$$$
