4wnv_ligand_1025
     RDKit          2D

 24 26  0  0  0  0  0  0  0  0999 V2000
    0.0000   -0.0000   -0.0000 F   0  0  0  0  0  0  0  0  0  0  0  0
    1.2825    0.7600   -0.0000 C   0  0  0  0  0  0  0  0  0  0  0  0
    1.2706    2.2680   -0.0000 F   0  0  0  0  0  0  0  0  0  0  0  0
    2.5649    0.0237   -0.0000 O   0  0  0  0  0  0  0  0  0  0  0  0
    3.8474    0.7837   -0.0000 C   0  0  0  0  0  0  0  0  0  0  0  0
    3.8474    2.2918   -0.0000 C   0  0  0  0  0  0  0  0  0  0  0  0
    5.1298    0.0475   -0.0000 C   0  0  0  0  0  0  0  0  0  0  0  0
    5.1179    3.0636   -0.0000 C   0  0  0  0  0  0  0  0  0  0  0  0
    2.5412    3.0518   -0.0000 C   0  0  0  0  0  0  0  0  0  0  0  0
    6.4123    0.8193   -0.0000 C   0  0  0  0  0  0  0  0  0  0  0  0
    6.4004    2.3274   -0.0000 C   0  0  0  0  0  0  0  0  0  0  0  0
    2.5293    4.5598   -0.0000 C   0  0  0  0  0  0  0  0  0  0  0  0
    3.8117    5.3317   -0.0000 N   0  0  0  0  0  0  0  0  0  0  0  0
    1.2231    5.3198   -0.0000 C   0  0  0  0  0  0  0  0  0  0  0  0
    5.0942    4.5836   -0.0000 C   0  0  0  0  0  0  0  0  0  0  0  0
    3.7880    6.8279   -0.0000 C   0  0  0  0  0  0  0  0  0  0  0  0
   -0.0950    4.5717   -0.0000 C   0  0  0  0  0  0  0  0  0  0  0  0
    1.2112    6.8398   -0.0000 C   0  0  0  0  0  0  0  0  0  0  0  0
    6.3766    5.3436   -0.0000 C   0  0  0  0  0  0  0  0  0  0  0  0
    5.0823    7.5879   -0.0000 C   0  0  0  0  0  0  0  0  0  0  0  0
   -1.4012    5.3317   -0.0000 C   0  0  0  0  0  0  0  0  0  0  0  0
   -0.0950    7.5997   -0.0000 C   0  0  0  0  0  0  0  0  0  0  0  0
    6.3648    6.8516   -0.0000 N   0  0  0  0  0  0  0  0  0  0  0  0
   -1.4131    6.8398   -0.0000 C   0  0  0  0  0  0  0  0  0  0  0  0
  1  2  1  0
  2  3  1  0
  2  4  1  0
  4  5  1  0
  5  6  2  0
  5  7  1  0
  6  8  1  0
  6  9  1  0
  7 10  2  0
  8 11  2  0
  9 12  1  0
 12 13  1  0
 12 14  1  0
 13 15  1  0
 13 16  1  0
 14 17  2  0
 14 18  1  0
 15 19  1  0
 16 20  1  0
 17 21  1  0
 18 22  2  0
 19 23  1  0
 21 24  2  0
 10 11  1  0
 20 23  1  0
 22 24  1  0
M  END
>  <MolRegNo>  (1) 
632150

>  <m>  (1) 
=

>  <Value>  (1) 
30000

>  <Unit>  (1) 
nM

>  <Type>  (1) 
IC50

>  <pValue>  (1) 
4.52

>  <Ligand Efficiency>  (1) 
0

>  <Binding Efficiency>  (1) 
0

>  <Surface Efficiency>  (1) 
0

>  <Assay Index>  (1) 
480301

>  <Assay Category>  (1) 


>  <Assay Organism>  (1) 


>  <Target ID>  (1) 
11365

>  <Target Name>  (1) 
Cytochrome P450 2D6

>  <Target Organism>  (1) 
Homo sapiens

>  <Target Description>  (1) 
Target is a single protein chain

>  <Sequence Accession>  (1) 
P10635

>  <Reference>  (1) 
Bioorg Med Chem Lett 20 (12), 3788-3792 (2010)

>  <Pubmed ID>  (1) 
20471260

>  <DOI>  (1) 
10.1016/j.bmcl.2010.04.052

$$$$
