4wnv_ligand_811
     RDKit          2D

 29 32  0  0  0  0  0  0  0  0999 V2000
    0.0000   -0.0000   -0.0000 O   0  0  0  0  0  0  0  0  0  0  0  0
    1.4436    0.3666   -0.0000 C   0  0  0  0  0  0  0  0  0  0  0  0
    2.4748   -0.6989   -0.0000 N   0  0  0  0  0  0  0  0  0  0  0  0
    1.8446    1.8217   -0.0000 C   0  0  0  0  0  0  0  0  0  0  0  0
    2.0509   -2.1311   -0.0000 C   0  0  0  0  0  0  0  0  0  0  0  0
    3.9184   -0.3323   -0.0000 C   0  0  0  0  0  0  0  0  0  0  0  0
    3.2882    2.1883   -0.0000 C   0  0  0  0  0  0  0  0  0  0  0  0
    0.7906    2.9101   -0.0000 C   0  0  0  0  0  0  0  0  0  0  0  0
    3.0820   -3.1966   -0.0000 C   0  0  0  0  0  0  0  0  0  0  0  0
    4.9495   -1.3978   -0.0000 C   0  0  0  0  0  0  0  0  0  0  0  0
    3.6892    3.6434   -0.0000 C   0  0  0  0  0  0  0  0  0  0  0  0
    1.1916    4.3652   -0.0000 C   0  0  0  0  0  0  0  0  0  0  0  0
    5.1329    4.0100   -0.0000 O   0  0  0  0  0  0  0  0  0  0  0  0
    2.6352    4.7319   -0.0000 C   0  0  0  0  0  0  0  0  0  0  0  0
    3.0362    6.1869   -0.0000 C   0  0  0  0  0  0  0  0  0  0  0  0
    1.9821    7.2754   -0.0000 C   0  0  0  0  0  0  0  0  0  0  0  0
    4.4798    6.5536   -0.0000 C   0  0  0  0  0  0  0  0  0  0  0  0
    2.3831    8.7304   -0.0000 C   0  0  0  0  0  0  0  0  0  0  0  0
    0.5156    6.9317   -0.0000 C   0  0  0  0  0  0  0  0  0  0  0  0
    4.8808    8.0086   -0.0000 C   0  0  0  0  0  0  0  0  0  0  0  0
    3.8267    9.0971   -0.0000 O   0  0  0  0  0  0  0  0  0  0  0  0
    1.3290    9.8189   -0.0000 C   0  0  0  0  0  0  0  0  0  0  0  0
   -0.5385    8.0201   -0.0000 C   0  0  0  0  0  0  0  0  0  0  0  0
    5.2818    9.4637   -0.0000 C   0  0  0  0  0  0  0  0  0  0  0  0
    5.9120    6.9431   -0.0000 C   0  0  0  0  0  0  0  0  0  0  0  0
   -0.1375    9.4752   -0.0000 C   0  0  0  0  0  0  0  0  0  0  0  0
    6.7254    9.8303   -0.0000 C   0  0  0  0  0  0  0  0  0  0  0  0
    7.3556    7.3097   -0.0000 C   0  0  0  0  0  0  0  0  0  0  0  0
    7.7566    8.7648   -0.0000 N   0  0  0  0  0  0  0  0  0  0  0  0
  1  2  2  0
  2  3  1  0
  2  4  1  0
  3  5  1  0
  3  6  1  0
  4  7  2  0
  4  8  1  0
  5  9  1  0
  6 10  1  0
  7 11  1  0
  8 12  2  0
 11 13  1  0
 11 14  2  0
 14 15  1  0
 15 16  1  0
 15 17  2  0
 16 18  2  0
 16 19  1  0
 17 20  1  0
 18 21  1  0
 18 22  1  0
 19 23  2  0
 20 24  1  0
 20 25  1  0
 22 26  2  0
 24 27  1  0
 25 28  1  0
 27 29  1  0
 12 14  1  0
 20 21  1  0
 23 26  1  0
 28 29  1  0
M  END
>  <MolRegNo>  (1) 
557416

>  <m>  (1) 
=

>  <Value>  (1) 
43000

>  <Unit>  (1) 
nM

>  <Type>  (1) 
IC50

>  <pValue>  (1) 
4.37

>  <Ligand Efficiency>  (1) 
0

>  <Binding Efficiency>  (1) 
0

>  <Surface Efficiency>  (1) 
0

>  <Assay Index>  (1) 
428577

>  <Assay Category>  (1) 


>  <Assay Organism>  (1) 
Homo sapiens

>  <Target ID>  (1) 
11365

>  <Target Name>  (1) 
Cytochrome P450 2D6

>  <Target Organism>  (1) 
Homo sapiens

>  <Target Description>  (1) 
Target is a single protein chain

>  <Sequence Accession>  (1) 
P10635

>  <Reference>  (1) 
J Med Chem 52 (18), 5685-5702 (2009)

>  <Pubmed ID>  (1) 
19694468

>  <DOI>  (1) 
10.1021/jm900773n

$$$$
