4wnv_ligand_409
     RDKit          2D

 22 24  0  0  1  0  0  0  0  0999 V2000
    0.0000   -0.0000   -0.0000 Cl  0  0  0  0  0  0  0  0  0  0  0  0
    1.2945    0.7600   -0.0000 C   0  0  0  0  0  0  0  0  0  0  0  0
    2.5770    0.0238   -0.0000 C   0  0  0  0  0  0  0  0  0  0  0  0
    1.2826    2.2801   -0.0000 C   0  0  0  0  0  0  0  0  0  0  0  0
    2.5652   -1.4607   -0.0000 Cl  0  0  0  0  0  0  0  0  0  0  0  0
    3.8715    0.7838   -0.0000 C   0  0  0  0  0  0  0  0  0  0  0  0
    2.5652    3.0402   -0.0000 C   0  0  0  0  0  0  0  0  0  0  0  0
   -0.0238    3.0402   -0.0000 C   0  0  0  0  0  0  0  0  0  0  0  0
    3.8596    2.3039   -0.0000 C   0  0  0  0  0  0  0  0  0  0  0  0
   -0.0356    4.5484   -0.0000 N   0  0  0  0  0  0  0  0  0  0  0  0
    1.2470    5.3085   -0.0000 C   0  0  0  0  0  0  0  0  0  0  0  0
   -1.3420    5.3085   -0.0000 C   0  0  0  0  0  0  0  0  0  0  0  0
    1.3895    6.8167   -0.0000 C   0  0  0  0  0  0  0  0  0  0  0  0
    2.6008    4.7147   -0.0000 C   0  0  0  0  0  0  0  0  0  0  0  0
   -2.6483    4.5722   -0.0000 C   0  0  0  0  0  0  0  0  0  0  0  0
    2.8502    7.1373   -0.0000 N   0  0  0  0  0  0  0  0  0  0  0  0
    3.5983    5.8429   -0.0000 C   0  0  0  0  0  0  0  0  0  0  0  0
   -3.9546    5.3441   -0.0000 N   0  0  0  0  0  0  0  0  0  0  0  0
   -2.6602    3.0877   -0.0000 C   0  0  0  0  0  0  0  0  0  0  0  0
   -5.2610    4.6078   -0.0000 C   0  0  0  0  0  0  0  0  0  0  0  0
   -3.9665    2.3514   -0.0000 C   0  0  0  0  0  0  0  0  0  0  0  0
   -5.2728    3.1233   -0.0000 C   0  0  0  0  0  0  0  0  0  0  0  0
  1  2  1  0
  2  3  2  0
  2  4  1  0
  3  5  1  0
  3  6  1  0
  4  7  2  0
  4  8  1  0
  6  9  2  0
  8 10  1  0
 11 10  1  1
 10 12  1  0
 11 13  1  0
 11 14  1  0
 12 15  1  0
 13 16  1  0
 14 17  1  0
 15 18  2  0
 15 19  1  0
 18 20  1  0
 19 21  2  0
 20 22  2  0
  7  9  1  0
 16 17  1  0
 21 22  1  0
M  END
>  <MolRegNo>  (1) 
412771

>  <m>  (1) 
=

>  <Value>  (1) 
500

>  <Unit>  (1) 
nM

>  <Type>  (1) 
IC50

>  <pValue>  (1) 
6.3

>  <Ligand Efficiency>  (1) 
0

>  <Binding Efficiency>  (1) 
0

>  <Surface Efficiency>  (1) 
0

>  <Assay Index>  (1) 
303145

>  <Assay Category>  (1) 


>  <Assay Organism>  (1) 
Homo sapiens

>  <Target ID>  (1) 
11365

>  <Target Name>  (1) 
Cytochrome P450 2D6

>  <Target Organism>  (1) 
Homo sapiens

>  <Target Description>  (1) 
Target is a single protein chain

>  <Sequence Accession>  (1) 
P10635

>  <Reference>  (1) 
Bioorg Med Chem Lett 17 (7), 2022-2025 (2007)

>  <Pubmed ID>  (1) 
17267217

>  <DOI>  (1) 
10.1016/j.bmcl.2007.01.020

$$$$
