4wnv_ligand_920
     RDKit          2D

 30 32  0  0  0  0  0  0  0  0999 V2000
    0.0000   -0.0000   -0.0000 Cl  0  0  0  0  0  0  0  0  0  0  0  0
   -0.0119    1.5124   -0.0000 C   0  0  0  0  0  0  0  0  0  0  0  0
   -1.3218    2.2745   -0.0000 C   0  0  0  0  0  0  0  0  0  0  0  0
    1.2861    2.2745   -0.0000 C   0  0  0  0  0  0  0  0  0  0  0  0
   -2.6318    1.5362   -0.0000 C   0  0  0  0  0  0  0  0  0  0  0  0
   -1.3337    3.7988   -0.0000 C   0  0  0  0  0  0  0  0  0  0  0  0
    1.2742    3.7988   -0.0000 C   0  0  0  0  0  0  0  0  0  0  0  0
   -3.9417    0.7979   -0.0000 N   0  0  0  0  0  0  0  0  0  0  0  0
   -0.0476    4.5609   -0.0000 C   0  0  0  0  0  0  0  0  0  0  0  0
    2.5603    4.5609   -0.0000 N   0  0  0  0  0  0  0  0  0  0  0  0
    3.8464    3.8226   -0.0000 C   0  0  0  0  0  0  0  0  0  0  0  0
    2.5484    6.0733   -0.0000 C   0  0  0  0  0  0  0  0  0  0  0  0
    4.0012    2.3341   -0.0000 C   0  0  0  0  0  0  0  0  0  0  0  0
    5.2159    4.4419   -0.0000 C   0  0  0  0  0  0  0  0  0  0  0  0
    3.8345    6.8355   -0.0000 C   0  0  0  0  0  0  0  0  0  0  0  0
    5.4541    2.0363   -0.0000 N   0  0  0  0  0  0  0  0  0  0  0  0
    6.2162    3.3463   -0.0000 C   0  0  0  0  0  0  0  0  0  0  0  0
    3.8107    8.3359   -0.0000 C   0  0  0  0  0  0  0  0  0  0  0  0
    5.1206    6.0971   -0.0000 C   0  0  0  0  0  0  0  0  0  0  0  0
    6.0495    0.6788   -0.0000 C   0  0  0  0  0  0  0  0  0  0  0  0
    5.0849    9.1100   -0.0000 C   0  0  0  0  0  0  0  0  0  0  0  0
    2.4889    9.0862   -0.0000 C   0  0  0  0  0  0  0  0  0  0  0  0
    6.4068    6.8593   -0.0000 C   0  0  0  0  0  0  0  0  0  0  0  0
    5.1564   -0.5240   -0.0000 O   0  0  0  0  0  0  0  0  0  0  0  0
    7.5262    0.5359   -0.0000 O   0  0  0  0  0  0  0  0  0  0  0  0
    6.3829    8.3717   -0.0000 C   0  0  0  0  0  0  0  0  0  0  0  0
    7.6929    6.1210   -0.0000 F   0  0  0  0  0  0  0  0  0  0  0  0
    8.1335   -0.8217   -0.0000 C   0  0  0  0  0  0  0  0  0  0  0  0
    9.6220   -0.9646   -0.0000 C   0  0  0  0  0  0  0  0  0  0  0  0
    7.2403   -2.0244   -0.0000 C   0  0  0  0  0  0  0  0  0  0  0  0
  1  2  1  0
  2  3  2  0
  2  4  1  0
  3  5  1  0
  3  6  1  0
  4  7  2  0
  5  8  3  0
  6  9  2  0
  7 10  1  0
 11 10  1  1
 10 12  1  0
 11 13  1  0
 11 14  1  0
 12 15  1  0
 13 16  1  0
 14 17  1  0
 15 18  2  0
 15 19  1  0
 16 20  1  0
 18 21  1  0
 18 22  1  0
 19 23  2  0
 20 24  2  0
 20 25  1  0
 21 26  2  0
 23 27  1  0
 25 28  1  0
 28 29  1  0
 28 30  1  0
  7  9  1  0
 16 17  1  0
 23 26  1  0
M  END
>  <MolRegNo>  (1) 
590208

>  <m>  (1) 
=

>  <Value>  (1) 
15000

>  <Unit>  (1) 
nM

>  <Type>  (1) 
IC50

>  <pValue>  (1) 
4.82

>  <Ligand Efficiency>  (1) 
0

>  <Binding Efficiency>  (1) 
0

>  <Surface Efficiency>  (1) 
0

>  <Assay Index>  (1) 
452357

>  <Assay Category>  (1) 


>  <Assay Organism>  (1) 


>  <Target ID>  (1) 
11365

>  <Target Name>  (1) 
Cytochrome P450 2D6

>  <Target Organism>  (1) 
Homo sapiens

>  <Target Description>  (1) 
Target is a single protein chain

>  <Sequence Accession>  (1) 
P10635

>  <Reference>  (1) 
Bioorg Med Chem Lett 20 (1), 371-374 (2010)

>  <Pubmed ID>  (1) 
19926282

>  <DOI>  (1) 
10.1016/j.bmcl.2009.10.092

$$$$
