4wnv_ligand_332
     RDKit          2D

 33 36  0  0  0  0  0  0  0  0999 V2000
    0.0000   -0.0000   -0.0000 Cl  0  0  0  0  0  0  0  0  0  0  0  0
    1.3246   -0.7587   -0.0000 C   0  0  0  0  0  0  0  0  0  0  0  0
    1.3126   -2.2278   -0.0000 C   0  0  0  0  0  0  0  0  0  0  0  0
    2.6011   -0.0000   -0.0000 C   0  0  0  0  0  0  0  0  0  0  0  0
    2.5770   -2.9624   -0.0000 C   0  0  0  0  0  0  0  0  0  0  0  0
    3.8776   -0.7225   -0.0000 C   0  0  0  0  0  0  0  0  0  0  0  0
    3.8896   -2.1796   -0.0000 C   0  0  0  0  0  0  0  0  0  0  0  0
    5.2022   -2.9383   -0.0000 C   0  0  0  0  0  0  0  0  0  0  0  0
    5.1901   -4.4195   -0.0000 C   0  0  0  0  0  0  0  0  0  0  0  0
    6.4787   -2.1796   -0.0000 C   0  0  0  0  0  0  0  0  0  0  0  0
    6.4787   -5.1540   -0.0000 C   0  0  0  0  0  0  0  0  0  0  0  0
    7.7792   -2.8901   -0.0000 C   0  0  0  0  0  0  0  0  0  0  0  0
    7.7792   -4.3833   -0.0000 C   0  0  0  0  0  0  0  0  0  0  0  0
    9.0677   -5.1299   -0.0000 S   0  0  0  0  0  0  0  0  0  0  0  0
    9.8143   -3.8173   -0.0000 O   0  0  0  0  0  0  0  0  0  0  0  0
    8.3091   -6.4184   -0.0000 O   0  0  0  0  0  0  0  0  0  0  0  0
   10.3683   -5.8765   -0.0000 N   0  0  0  0  0  0  0  0  0  0  0  0
   11.6688   -5.1059   -0.0000 C   0  0  0  0  0  0  0  0  0  0  0  0
   11.6327   -3.5645   -0.0000 C   0  0  0  0  0  0  0  0  0  0  0  0
   12.9573   -5.8525   -0.0000 C   0  0  0  0  0  0  0  0  0  0  0  0
   10.3321   -2.8058   -0.0000 N   0  0  0  0  0  0  0  0  0  0  0  0
   12.9453   -2.7938   -0.0000 C   0  0  0  0  0  0  0  0  0  0  0  0
   14.2579   -5.0818   -0.0000 C   0  0  0  0  0  0  0  0  0  0  0  0
   10.3201   -1.2885   -0.0000 C   0  0  0  0  0  0  0  0  0  0  0  0
   14.2458   -3.5404   -0.0000 C   0  0  0  0  0  0  0  0  0  0  0  0
   15.4380   -5.9849   -0.0000 C   0  0  0  0  0  0  0  0  0  0  0  0
    8.9955   -0.5178   -0.0000 C   0  0  0  0  0  0  0  0  0  0  0  0
   11.6086   -0.5299   -0.0000 C   0  0  0  0  0  0  0  0  0  0  0  0
   15.4019   -2.5891   -0.0000 C   0  0  0  0  0  0  0  0  0  0  0  0
   16.8951   -5.6237   -0.0000 C   0  0  0  0  0  0  0  0  0  0  0  0
   16.8589   -2.9021   -0.0000 C   0  0  0  0  0  0  0  0  0  0  0  0
   17.5333   -4.2388   -0.0000 N   0  0  0  0  0  0  0  0  0  0  0  0
   19.0265   -4.2268   -0.0000 C   0  0  0  0  0  0  0  0  0  0  0  0
  1  2  1  0
  2  3  2  0
  2  4  1  0
  3  5  1  0
  4  6  2  0
  5  7  2  0
  7  8  1  0
  8  9  2  0
  8 10  1  0
  9 11  1  0
 10 12  2  0
 11 13  2  0
 13 14  1  0
 14 15  2  0
 14 16  2  0
 14 17  1  0
 17 18  1  0
 18 19  2  0
 18 20  1  0
 19 21  1  0
 19 22  1  0
 20 23  2  0
 21 24  1  0
 22 25  2  0
 23 26  1  0
 24 27  1  0
 24 28  1  0
 25 29  1  0
 26 30  1  0
 29 31  1  0
 30 32  1  0
 32 33  1  0
  6  7  1  0
 12 13  1  0
 23 25  1  0
 31 32  1  0
M  END
>  <MolRegNo>  (1) 
383987

>  <m>  (1) 
=

>  <Value>  (1) 
19000

>  <Unit>  (1) 
nM

>  <Type>  (1) 
IC50

>  <pValue>  (1) 
4.72

>  <Ligand Efficiency>  (1) 
0

>  <Binding Efficiency>  (1) 
0

>  <Surface Efficiency>  (1) 
0

>  <Assay Index>  (1) 
286489

>  <Assay Category>  (1) 


>  <Assay Organism>  (1) 


>  <Target ID>  (1) 
11365

>  <Target Name>  (1) 
Cytochrome P450 2D6

>  <Target Organism>  (1) 
Homo sapiens

>  <Target Description>  (1) 
Target is a single protein chain

>  <Sequence Accession>  (1) 
P10635

>  <Reference>  (1) 
Bioorg Med Chem Lett 17 (2), 400-405 (2007)

>  <Pubmed ID>  (1) 
17084080

>  <DOI>  (1) 
10.1016/j.bmcl.2006.10.036

$$$$
