4wnv_ligand_636
     RDKit          2D

 21 24  0  0  0  0  0  0  0  0999 V2000
    0.0000   -0.0000   -0.0000 N   0  0  0  0  0  0  0  0  0  0  0  0
   -1.4405    0.4723   -0.0000 C   0  0  0  0  0  0  0  0  0  0  0  0
    0.8738    1.2280   -0.0000 C   0  0  0  0  0  0  0  0  0  0  0  0
   -1.4523    1.9837   -0.0000 C   0  0  0  0  0  0  0  0  0  0  0  0
   -2.7394   -0.2598   -0.0000 C   0  0  0  0  0  0  0  0  0  0  0  0
   -0.0236    2.4560   -0.0000 C   0  0  0  0  0  0  0  0  0  0  0  0
   -2.7512    2.7512   -0.0000 C   0  0  0  0  0  0  0  0  0  0  0  0
   -4.0382    0.4959   -0.0000 C   0  0  0  0  0  0  0  0  0  0  0  0
   -4.0500    2.0073   -0.0000 C   0  0  0  0  0  0  0  0  0  0  0  0
   -5.3489    2.7630   -0.0000 C   0  0  0  0  0  0  0  0  0  0  0  0
   -6.7186    2.1726   -0.0000 C   0  0  0  0  0  0  0  0  0  0  0  0
   -5.5142    4.2508   -0.0000 C   0  0  0  0  0  0  0  0  0  0  0  0
   -4.0736    3.5305   -0.0000 C   0  0  0  0  0  0  0  0  0  0  0  0
   -7.7222    3.2943   -0.0000 N   0  0  0  0  0  0  0  0  0  0  0  0
   -6.9783    4.5696   -0.0000 C   0  0  0  0  0  0  0  0  0  0  0  0
   -4.0973    5.0301   -0.0000 C   0  0  0  0  0  0  0  0  0  0  0  0
   -2.8220    5.7976   -0.0000 C   0  0  0  0  0  0  0  0  0  0  0  0
   -5.3961    5.7740   -0.0000 C   0  0  0  0  0  0  0  0  0  0  0  0
   -2.8456    7.2971   -0.0000 C   0  0  0  0  0  0  0  0  0  0  0  0
   -5.4197    7.2735   -0.0000 C   0  0  0  0  0  0  0  0  0  0  0  0
   -4.1563    8.0410   -0.0000 C   0  0  0  0  0  0  0  0  0  0  0  0
  1  2  1  0
  1  3  1  0
  2  4  2  0
  2  5  1  0
  3  6  2  0
  4  7  1  0
  5  8  2  0
  7  9  2  0
  9 10  1  0
 10 11  1  0
 10 12  1  0
 10 13  1  0
 11 14  1  0
 12 15  1  0
 13 16  1  0
 16 17  2  0
 16 18  1  0
 17 19  1  0
 18 20  2  0
 19 21  2  0
  4  6  1  0
  8  9  1  0
 14 15  1  0
 20 21  1  0
M  END
>  <MolRegNo>  (1) 
516304

>  <m>  (1) 
=

>  <Value>  (1) 
3100

>  <Unit>  (1) 
nM

>  <Type>  (1) 
IC50

>  <pValue>  (1) 
5.51

>  <Ligand Efficiency>  (1) 
0

>  <Binding Efficiency>  (1) 
0

>  <Surface Efficiency>  (1) 
0

>  <Assay Index>  (1) 
342264

>  <Assay Category>  (1) 


>  <Assay Organism>  (1) 


>  <Target ID>  (1) 
11365

>  <Target Name>  (1) 
Cytochrome P450 2D6

>  <Target Organism>  (1) 
Homo sapiens

>  <Target Description>  (1) 
Target is a single protein chain

>  <Sequence Accession>  (1) 
P10635

>  <Reference>  (1) 
Bioorg Med Chem Lett 18 (23), 6062-6066 (2008)

>  <Pubmed ID>  (1) 
18954985

>  <DOI>  (1) 
10.1016/j.bmcl.2008.10.025

$$$$
