4wnv_ligand_1069
     RDKit          2D

 21 23  0  0  0  0  0  0  0  0999 V2000
    0.0000   -0.0000   -0.0000 F   0  0  0  0  0  0  0  0  0  0  0  0
   -0.0118    1.4987   -0.0000 C   0  0  0  0  0  0  0  0  0  0  0  0
    1.2745    2.2657   -0.0000 C   0  0  0  0  0  0  0  0  0  0  0  0
   -1.3217    2.2539   -0.0000 C   0  0  0  0  0  0  0  0  0  0  0  0
    2.6905    1.8291   -0.0000 N   0  0  0  0  0  0  0  0  0  0  0  0
    1.2509    3.7762   -0.0000 C   0  0  0  0  0  0  0  0  0  0  0  0
   -1.3335    3.7644   -0.0000 C   0  0  0  0  0  0  0  0  0  0  0  0
    3.5520    3.0564   -0.0000 C   0  0  0  0  0  0  0  0  0  0  0  0
   -0.0590    4.5314   -0.0000 C   0  0  0  0  0  0  0  0  0  0  0  0
    2.6669    4.2600   -0.0000 C   0  0  0  0  0  0  0  0  0  0  0  0
   -2.6315    4.5196   -0.0000 C   0  0  0  0  0  0  0  0  0  0  0  0
   -2.6433    6.0183   -0.0000 O   0  0  0  0  0  0  0  0  0  0  0  0
   -3.9296    3.7880   -0.0000 C   0  0  0  0  0  0  0  0  0  0  0  0
   -4.0948    2.3129   -0.0000 C   0  0  0  0  0  0  0  0  0  0  0  0
   -5.3103    4.4016   -0.0000 C   0  0  0  0  0  0  0  0  0  0  0  0
   -4.3426    5.2513   -0.0000 C   0  0  0  0  0  0  0  0  0  0  0  0
   -5.5699    2.0179   -0.0000 N   0  0  0  0  0  0  0  0  0  0  0  0
   -6.3251    3.3042   -0.0000 C   0  0  0  0  0  0  0  0  0  0  0  0
   -5.7941    5.6407   -0.0000 C   0  0  0  0  0  0  0  0  0  0  0  0
   -6.1953    7.0922   -0.0000 C   0  0  0  0  0  0  0  0  0  0  0  0
   -6.8562    4.5904   -0.0000 C   0  0  0  0  0  0  0  0  0  0  0  0
  1  2  1  0
  2  3  2  0
  2  4  1  0
  3  5  1  0
  3  6  1  0
  4  7  2  0
  5  8  1  0
  6  9  2  0
  6 10  1  0
  7 11  1  0
 11 12  2  0
 11 13  1  0
 13 14  1  0
 13 15  1  0
 13 16  1  0
 14 17  1  0
 15 18  1  0
 16 19  1  0
 19 20  1  0
 19 21  1  0
  7  9  1  0
  8 10  2  0
 17 18  1  0
M  END
>  <MolRegNo>  (1) 
690947

>  <m>  (1) 
=

>  <Value>  (1) 
1000

>  <Unit>  (1) 
nM

>  <Type>  (1) 
IC50

>  <pValue>  (1) 
6

>  <Ligand Efficiency>  (1) 
0

>  <Binding Efficiency>  (1) 
0

>  <Surface Efficiency>  (1) 
0

>  <Assay Index>  (1) 
497257

>  <Assay Category>  (1) 


>  <Assay Organism>  (1) 


>  <Target ID>  (1) 
11365

>  <Target Name>  (1) 
Cytochrome P450 2D6

>  <Target Organism>  (1) 
Homo sapiens

>  <Target Description>  (1) 
Target is a single protein chain

>  <Sequence Accession>  (1) 
P10635

>  <Reference>  (1) 
Bioorg Med Chem Lett 20 (18), 5559-5566 (2010)

>  <Pubmed ID>  (1) 
20691589

>  <DOI>  (1) 
10.1016/j.bmcl.2010.07.020

$$$$
