4wnv_ligand_582
     RDKit          2D

 39 41  0  0  0  0  0  0  0  0999 V2000
    0.0000   -0.0000   -0.0000 S   0  0  0  0  0  0  0  0  0  0  0  0
   -0.7463   -1.3031   -0.0000 O   0  0  0  0  0  0  0  0  0  0  0  0
    0.7345    1.3149   -0.0000 O   0  0  0  0  0  0  0  0  0  0  0  0
    1.3149   -0.7108   -0.0000 C   0  0  0  0  0  0  0  0  0  0  0  0
   -1.3149    0.7700   -0.0000 C   0  0  0  0  0  0  0  0  0  0  0  0
    2.5825    0.0829   -0.0000 C   0  0  0  0  0  0  0  0  0  0  0  0
    1.3386   -2.2034   -0.0000 C   0  0  0  0  0  0  0  0  0  0  0  0
    2.5351    1.5993   -0.0000 C   0  0  0  0  0  0  0  0  0  0  0  0
    3.8974   -0.6042   -0.0000 C   0  0  0  0  0  0  0  0  0  0  0  0
    2.6536   -2.9142   -0.0000 C   0  0  0  0  0  0  0  0  0  0  0  0
    1.1965    2.3337   -0.0000 O   0  0  0  0  0  0  0  0  0  0  0  0
    3.8027    2.3930   -0.0000 N   0  0  0  0  0  0  0  0  0  0  0  0
    3.9330   -2.0968   -0.0000 C   0  0  0  0  0  0  0  0  0  0  0  0
    3.7553    3.9093   -0.0000 C   0  0  0  0  0  0  0  0  0  0  0  0
    5.1176    1.6822   -0.0000 C   0  0  0  0  0  0  0  0  0  0  0  0
    5.0228    4.7148   -0.0000 C   0  0  0  0  0  0  0  0  0  0  0  0
    5.1413    0.1895   -0.0000 C   0  0  0  0  0  0  0  0  0  0  0  0
    5.8047    3.4473   -0.0000 O   0  0  0  0  0  0  0  0  0  0  0  0
    4.2173    6.0061   -0.0000 C   0  0  0  0  0  0  0  0  0  0  0  0
    6.2785    5.5322   -0.0000 C   0  0  0  0  0  0  0  0  0  0  0  0
    3.3999    7.3092   -0.0000 F   0  0  0  0  0  0  0  0  0  0  0  0
    5.4848    6.8116   -0.0000 F   0  0  0  0  0  0  0  0  0  0  0  0
    2.9379    5.2124   -0.0000 F   0  0  0  0  0  0  0  0  0  0  0  0
    7.5935    4.8451   -0.0000 N   0  0  0  0  0  0  0  0  0  0  0  0
    8.8492    5.6625   -0.0000 C   0  0  0  0  0  0  0  0  0  0  0  0
    8.7781    7.1789   -0.0000 O   0  0  0  0  0  0  0  0  0  0  0  0
   10.1641    4.9755   -0.0000 C   0  0  0  0  0  0  0  0  0  0  0  0
   10.3774    3.5065   -0.0000 C   0  0  0  0  0  0  0  0  0  0  0  0
   11.5028    5.6625   -0.0000 C   0  0  0  0  0  0  0  0  0  0  0  0
   11.8463    3.2577   -0.0000 N   0  0  0  0  0  0  0  0  0  0  0  0
    9.2875    2.4640   -0.0000 N   0  0  0  0  0  0  0  0  0  0  0  0
   12.5452    4.5964   -0.0000 N   0  0  0  0  0  0  0  0  0  0  0  0
   12.4979    1.9191   -0.0000 C   0  0  0  0  0  0  0  0  0  0  0  0
   11.6449    0.6871   -0.0000 C   0  0  0  0  0  0  0  0  0  0  0  0
   13.9786    1.8362   -0.0000 C   0  0  0  0  0  0  0  0  0  0  0  0
   12.2965   -0.6515   -0.0000 C   0  0  0  0  0  0  0  0  0  0  0  0
   14.6302    0.5094   -0.0000 C   0  0  0  0  0  0  0  0  0  0  0  0
   13.7891   -0.7345   -0.0000 C   0  0  0  0  0  0  0  0  0  0  0  0
   14.4407   -2.0731   -0.0000 F   0  0  0  0  0  0  0  0  0  0  0  0
  1  2  2  0
  1  3  2  0
  1  4  1  0
  1  5  1  0
  4  6  2  0
  4  7  1  0
  6  8  1  0
  6  9  1  0
  7 10  2  0
  8 11  2  0
  8 12  1  0
  9 13  2  0
 12 14  1  0
 12 15  1  0
 14 16  1  0
 15 17  1  0
 16 18  1  0
 16 19  1  0
 16 20  1  0
 19 21  1  0
 19 22  1  0
 19 23  1  0
 20 24  1  0
 24 25  1  0
 25 26  2  0
 25 27  1  0
 27 28  2  0
 27 29  1  0
 28 30  1  0
 28 31  1  0
 29 32  2  0
 30 33  1  0
 33 34  2  0
 33 35  1  0
 34 36  1  0
 35 37  2  0
 36 38  2  0
 38 39  1  0
 10 13  1  0
 30 32  1  0
 37 38  1  0
M  END
>  <MolRegNo>  (1) 
472564

>  <m>  (1) 
=

>  <Value>  (1) 
96000

>  <Unit>  (1) 
nM

>  <Type>  (1) 
IC50

>  <pValue>  (1) 
4.02

>  <Ligand Efficiency>  (1) 
0

>  <Binding Efficiency>  (1) 
0

>  <Surface Efficiency>  (1) 
0

>  <Assay Index>  (1) 
407328

>  <Assay Category>  (1) 


>  <Assay Organism>  (1) 


>  <Target ID>  (1) 
11365

>  <Target Name>  (1) 
Cytochrome P450 2D6

>  <Target Organism>  (1) 
Homo sapiens

>  <Target Description>  (1) 
Target is a single protein chain

>  <Sequence Accession>  (1) 
P10635

>  <Reference>  (1) 
Bioorg Med Chem Lett 19 (1), 158-162 (2009)

>  <Pubmed ID>  (1) 
19019676

>  <DOI>  (1) 
10.1016/j.bmcl.2008.10.128

$$$$
