4wnv_ligand_96
     RDKit          2D

 14 15  0  0  0  0  0  0  0  0999 V2000
    0.0000   -0.0000   -0.0000 S   0  0  0  0  0  0  0  0  0  0  0  0
   -0.1455    1.5282   -0.0000 C   0  0  0  0  0  0  0  0  0  0  0  0
    1.4918   -0.3153   -0.0000 C   0  0  0  0  0  0  0  0  0  0  0  0
   -1.4918    2.3165   -0.0000 C   0  0  0  0  0  0  0  0  0  0  0  0
    1.2371    2.1710   -0.0000 C   0  0  0  0  0  0  0  0  0  0  0  0
    2.0982   -1.7101   -0.0000 C   0  0  0  0  0  0  0  0  0  0  0  0
    2.2559    1.0309   -0.0000 C   0  0  0  0  0  0  0  0  0  0  0  0
   -2.8380    1.5524   -0.0000 C   0  0  0  0  0  0  0  0  0  0  0  0
   -1.5039    3.8689   -0.0000 C   0  0  0  0  0  0  0  0  0  0  0  0
    1.3584   -2.6925   -0.0000 O   0  0  0  0  0  0  0  0  0  0  0  0
    3.3110   -1.8314   -0.0000 C   0  0  0  0  0  0  0  0  0  0  0  0
   -4.1843    2.3286   -0.0000 N   0  0  0  0  0  0  0  0  0  0  0  0
   -2.8502    4.6451   -0.0000 C   0  0  0  0  0  0  0  0  0  0  0  0
   -4.1964    3.8811   -0.0000 C   0  0  0  0  0  0  0  0  0  0  0  0
  1  2  1  0
  1  3  1  0
  2  4  1  0
  2  5  2  0
  3  6  1  0
  3  7  2  0
  4  8  2  0
  4  9  1  0
  6 10  2  0
  6 11  1  0
  8 12  1  0
  9 13  2  0
 12 14  2  0
  5  7  1  0
 13 14  1  0
M  END
>  <MolRegNo>  (1) 
299620

>  <m>  (1) 
=

>  <Value>  (1) 
387000

>  <Unit>  (1) 
nM

>  <Type>  (1) 
IC50

>  <pValue>  (1) 
0

>  <Ligand Efficiency>  (1) 
0

>  <Binding Efficiency>  (1) 
0

>  <Surface Efficiency>  (1) 
0

>  <Assay Index>  (1) 
238570

>  <Assay Category>  (1) 


>  <Assay Organism>  (1) 
Homo sapiens

>  <Target ID>  (1) 
11365

>  <Target Name>  (1) 
Cytochrome P450 2D6

>  <Target Organism>  (1) 
Homo sapiens

>  <Target Description>  (1) 
Target is a single protein chain

>  <Sequence Accession>  (1) 
P10635

>  <Reference>  (1) 
J Med Chem 48 (1), 224-239 (2005)

>  <Pubmed ID>  (1) 
15634016

>  <DOI>  (1) 
10.1021/jm049696n

$$$$
