4wnv_ligand_311
     RDKit          2D

 37 41  0  0  1  0  0  0  0  0999 V2000
    0.0000   -0.0000   -0.0000 S   0  0  0  0  0  0  0  0  0  0  0  0
   -1.0673   -1.0673   -0.0000 C   0  0  0  0  0  0  0  0  0  0  0  0
    1.3400   -0.6641   -0.0000 C   0  0  0  0  0  0  0  0  0  0  0  0
   -2.5614   -0.8301   -0.0000 C   0  0  0  0  0  0  0  0  0  0  0  0
   -0.3795   -2.3835   -0.0000 C   0  0  0  0  0  0  0  0  0  0  0  0
    2.6563    0.0474   -0.0000 C   0  0  0  0  0  0  0  0  0  0  0  0
    1.1028   -2.1345   -0.0000 C   0  0  0  0  0  0  0  0  0  0  0  0
   -3.1188    0.5811   -0.0000 C   0  0  0  0  0  0  0  0  0  0  0  0
   -3.4982   -1.9922   -0.0000 C   0  0  0  0  0  0  0  0  0  0  0  0
    2.7037    1.5653   -0.0000 O   0  0  0  0  0  0  0  0  0  0  0  0
    3.9133   -0.7471   -0.0000 N   0  0  0  0  0  0  0  0  0  0  0  0
   -4.6129    0.8182   -0.0000 C   0  0  0  0  0  0  0  0  0  0  0  0
   -4.9924   -1.7669   -0.0000 C   0  0  0  0  0  0  0  0  0  0  0  0
    5.2295   -0.0356   -0.0000 C   0  0  0  0  0  0  0  0  0  0  0  0
    3.8421   -2.2412   -0.0000 C   0  0  0  0  0  0  0  0  0  0  0  0
   -5.5616   -0.3439   -0.0000 C   0  0  0  0  0  0  0  0  0  0  0  0
    6.5695   -0.6878   -0.0000 C   0  0  0  0  0  0  0  0  0  0  0  0
    5.4430    1.4586   -0.0000 C   0  0  0  0  0  0  0  0  0  0  0  0
   -7.0557   -0.1186   -0.0000 C   0  0  0  0  0  0  0  0  0  0  0  0
    7.6012    0.4032   -0.0000 N   0  0  0  0  0  0  0  0  0  0  0  0
    6.9134    1.7195   -0.0000 C   0  0  0  0  0  0  0  0  0  0  0  0
    9.0717    0.1897   -0.0000 C   0  0  0  0  0  0  0  0  0  0  0  0
    9.9966    1.3756   -0.0000 O   0  0  0  0  0  0  0  0  0  0  0  0
    9.6171   -1.1977   -0.0000 N   0  0  0  0  0  0  0  0  0  0  0  0
   11.0639   -1.5653   -0.0000 C   0  0  0  0  0  0  0  0  0  0  0  0
    8.7989   -2.4547   -0.0000 C   0  0  0  0  0  0  0  0  0  0  0  0
   11.1587   -3.0476   -0.0000 C   0  0  0  0  0  0  0  0  0  0  0  0
    9.7476   -3.6049   -0.0000 C   0  0  0  0  0  0  0  0  0  0  0  0
   12.4157   -3.8421   -0.0000 N   0  0  0  0  0  0  0  0  0  0  0  0
   13.7320   -3.1306   -0.0000 C   0  0  0  0  0  0  0  0  0  0  0  0
   15.0008   -3.9370   -0.0000 C   0  0  0  0  0  0  0  0  0  0  0  0
   13.7794   -1.6246   -0.0000 C   0  0  0  0  0  0  0  0  0  0  0  0
   16.3171   -3.2255   -0.0000 C   0  0  0  0  0  0  0  0  0  0  0  0
   15.1076   -0.9131   -0.0000 C   0  0  0  0  0  0  0  0  0  0  0  0
   16.3764   -1.7076   -0.0000 C   0  0  0  0  0  0  0  0  0  0  0  0
   17.6571   -2.4428   -0.0000 C   0  0  0  0  0  0  0  0  0  0  0  0
   17.1116   -0.4032   -0.0000 C   0  0  0  0  0  0  0  0  0  0  0  0
  1  2  1  0
  1  3  1  0
  2  4  1  0
  2  5  2  0
  3  6  1  0
  3  7  2  0
  4  8  2  0
  4  9  1  0
  6 10  2  0
  6 11  1  0
  8 12  1  0
  9 13  2  0
 14 11  1  1
 11 15  1  0
 12 16  2  0
 14 17  1  0
 14 18  1  0
 16 19  1  0
 17 20  1  0
 18 21  1  0
 20 22  1  0
 22 23  2  0
 22 24  1  0
 24 25  1  0
 24 26  1  0
 25 27  1  0
 26 28  1  0
 27 29  1  6
 29 30  1  0
 30 31  1  0
 30 32  1  0
 31 33  1  0
 32 34  1  0
 33 35  1  0
 35 36  1  0
 35 37  1  0
  5  7  1  0
 13 16  1  0
 20 21  1  0
 27 28  1  0
 34 35  1  0
M  END
>  <MolRegNo>  (1) 
359645

>  <m>  (1) 
=

>  <Value>  (1) 
3500

>  <Unit>  (1) 
nM

>  <Type>  (1) 
IC50

>  <pValue>  (1) 
5.46

>  <Ligand Efficiency>  (1) 
0

>  <Binding Efficiency>  (1) 
0

>  <Surface Efficiency>  (1) 
0

>  <Assay Index>  (1) 
268140

>  <Assay Category>  (1) 


>  <Assay Organism>  (1) 
Homo sapiens

>  <Target ID>  (1) 
11365

>  <Target Name>  (1) 
Cytochrome P450 2D6

>  <Target Organism>  (1) 
Homo sapiens

>  <Target Description>  (1) 
Target is a single protein chain

>  <Sequence Accession>  (1) 
P10635

>  <Reference>  (1) 
Bioorg Med Chem Lett 16 (18), 4922-4930 (2006)

>  <Pubmed ID>  (1) 
16824755

>  <DOI>  (1) 
10.1016/j.bmcl.2006.06.049

$$$$
