4wnv_ligand_237
     RDKit          2D

 28 30  0  0  1  0  0  0  0  0999 V2000
    0.0000   -0.0000   -0.0000 O   0  0  0  0  0  0  0  0  0  0  0  0
   -0.0119   -1.4876   -0.0000 C   0  0  0  0  0  0  0  0  0  0  0  0
    1.2734   -2.2254   -0.0000 N   0  0  0  0  0  0  0  0  0  0  0  0
   -1.3210   -2.2254   -0.0000 C   0  0  0  0  0  0  0  0  0  0  0  0
    2.5587   -1.4638   -0.0000 C   0  0  0  0  0  0  0  0  0  0  0  0
    1.2615   -3.7130   -0.0000 C   0  0  0  0  0  0  0  0  0  0  0  0
   -2.6301   -1.4638   -0.0000 N   0  0  0  0  0  0  0  0  0  0  0  0
    2.5468    0.0476   -0.0000 C   0  0  0  0  0  0  0  0  0  0  0  0
    3.8439   -2.2016   -0.0000 C   0  0  0  0  0  0  0  0  0  0  0  0
   -3.9392   -2.2016   -0.0000 C   0  0  0  0  0  0  0  0  0  0  0  0
    3.8320    0.8093   -0.0000 C   0  0  0  0  0  0  0  0  0  0  0  0
    1.2377    0.7974   -0.0000 C   0  0  0  0  0  0  0  0  0  0  0  0
    5.1292   -1.4400   -0.0000 N   0  0  0  0  0  0  0  0  0  0  0  0
   -3.9511   -3.7011   -0.0000 C   0  0  0  0  0  0  0  0  0  0  0  0
   -5.2482   -1.4400   -0.0000 C   0  0  0  0  0  0  0  0  0  0  0  0
    3.8201    2.3206   -0.0000 C   0  0  0  0  0  0  0  0  0  0  0  0
    1.2139    2.3087   -0.0000 C   0  0  0  0  0  0  0  0  0  0  0  0
    6.4859   -2.0350   -0.0000 C   0  0  0  0  0  0  0  0  0  0  0  0
    5.2720    0.0595   -0.0000 C   0  0  0  0  0  0  0  0  0  0  0  0
   -5.2720   -4.4390   -0.0000 C   0  0  0  0  0  0  0  0  0  0  0  0
   -6.5573   -2.1778   -0.0000 C   0  0  0  0  0  0  0  0  0  0  0  0
    2.4992    3.0823   -0.0000 C   0  0  0  0  0  0  0  0  0  0  0  0
    7.4737   -0.9045   -0.0000 C   0  0  0  0  0  0  0  0  0  0  0  0
    6.7239    0.3927   -0.0000 C   0  0  0  0  0  0  0  0  0  0  0  0
   -5.2839   -5.9266   -0.0000 C   0  0  0  0  0  0  0  0  0  0  0  0
   -6.5811   -3.6773   -0.0000 C   0  0  0  0  0  0  0  0  0  0  0  0
    8.9613   -1.0473   -0.0000 O   0  0  0  0  0  0  0  0  0  0  0  0
   -5.2958   -7.4142   -0.0000 N   0  0  0  0  0  0  0  0  0  0  0  0
  1  2  2  0
  2  3  1  0
  2  4  1  0
  5  3  1  0
  3  6  1  0
  4  7  1  0
  5  8  1  0
  5  9  1  1
  7 10  1  0
  8 11  2  0
  8 12  1  0
  9 13  1  0
 10 14  2  0
 10 15  1  0
 11 16  1  0
 12 17  2  0
 13 18  1  0
 13 19  1  0
 14 20  1  0
 15 21  2  0
 16 22  2  0
 18 23  1  0
 19 24  1  0
 20 25  1  0
 20 26  2  0
 23 27  1  6
 25 28  3  0
 17 22  1  0
 21 26  1  0
 23 24  1  0
M  END
>  <MolRegNo>  (1) 
337814

>  <m>  (1) 
=

>  <Value>  (1) 
3000

>  <Unit>  (1) 
nM

>  <Type>  (1) 
IC50

>  <pValue>  (1) 
5.52

>  <Ligand Efficiency>  (1) 
0

>  <Binding Efficiency>  (1) 
0

>  <Surface Efficiency>  (1) 
0

>  <Assay Index>  (1) 
257094

>  <Assay Category>  (1) 


>  <Assay Organism>  (1) 
Homo sapiens

>  <Target ID>  (1) 
11365

>  <Target Name>  (1) 
Cytochrome P450 2D6

>  <Target Organism>  (1) 
Homo sapiens

>  <Target Description>  (1) 
Target is a single protein chain

>  <Sequence Accession>  (1) 
P10635

>  <Reference>  (1) 
Bioorg Med Chem Lett 16 (3), 645-648 (2006)

>  <Pubmed ID>  (1) 
16263278

>  <DOI>  (1) 
10.1016/j.bmcl.2005.10.034

$$$$
