4wnv_ligand_934
     RDKit          2D

 35 38  0  0  1  0  0  0  0  0999 V2000
    0.0000   -0.0000   -0.0000 F   0  0  0  0  0  0  0  0  0  0  0  0
   -1.3066   -0.7483   -0.0000 C   0  0  0  0  0  0  0  0  0  0  0  0
   -1.3185   -2.2332   -0.0000 F   0  0  0  0  0  0  0  0  0  0  0  0
   -0.0238   -1.4848   -0.0000 F   0  0  0  0  0  0  0  0  0  0  0  0
   -2.6251    0.0119   -0.0000 O   0  0  0  0  0  0  0  0  0  0  0  0
   -3.9318   -0.7365   -0.0000 C   0  0  0  0  0  0  0  0  0  0  0  0
   -5.2384    0.0238   -0.0000 C   0  0  0  0  0  0  0  0  0  0  0  0
   -3.9436   -2.2332   -0.0000 C   0  0  0  0  0  0  0  0  0  0  0  0
   -6.5450   -0.7127   -0.0000 C   0  0  0  0  0  0  0  0  0  0  0  0
   -5.2622   -2.9696   -0.0000 C   0  0  0  0  0  0  0  0  0  0  0  0
   -6.5569   -2.2094   -0.0000 C   0  0  0  0  0  0  0  0  0  0  0  0
   -7.8517    0.0475   -0.0000 C   0  0  0  0  0  0  0  0  0  0  0  0
   -9.1583   -0.6890   -0.0000 N   0  0  0  0  0  0  0  0  0  0  0  0
  -10.4649    0.0713   -0.0000 C   0  0  0  0  0  0  0  0  0  0  0  0
   -9.1702   -2.1738   -0.0000 C   0  0  0  0  0  0  0  0  0  0  0  0
  -10.4768    1.5798   -0.0000 O   0  0  0  0  0  0  0  0  0  0  0  0
  -11.7716   -0.6652   -0.0000 C   0  0  0  0  0  0  0  0  0  0  0  0
   -7.9586   -3.0409   -0.0000 C   0  0  0  0  0  0  0  0  0  0  0  0
  -10.3937   -3.0409   -0.0000 C   0  0  0  0  0  0  0  0  0  0  0  0
  -13.0188    0.2019   -0.0000 N   0  0  0  0  0  0  0  0  0  0  0  0
  -12.2348   -2.0906   -0.0000 C   0  0  0  0  0  0  0  0  0  0  0  0
   -8.4337   -4.4544   -0.0000 C   0  0  0  0  0  0  0  0  0  0  0  0
   -9.9304   -4.4544   -0.0000 C   0  0  0  0  0  0  0  0  0  0  0  0
  -14.2304   -0.6890   -0.0000 C   0  0  0  0  0  0  0  0  0  0  0  0
  -13.7434   -2.1025   -0.0000 N   0  0  0  0  0  0  0  0  0  0  0  0
   -7.9942   -5.8680   -0.0000 C   0  0  0  0  0  0  0  0  0  0  0  0
  -10.4055   -5.8680   -0.0000 C   0  0  0  0  0  0  0  0  0  0  0  0
  -14.6224   -3.3141   -0.0000 C   0  0  0  0  0  0  0  0  0  0  0  0
   -9.2177   -6.7232   -0.0000 N   0  0  0  0  0  0  0  0  0  0  0  0
   -9.2414   -8.2080   -0.0000 C   0  0  0  0  0  0  0  0  0  0  0  0
  -10.5600   -8.9445   -0.0000 C   0  0  0  0  0  0  0  0  0  0  0  0
  -11.8666   -8.1724   -0.0000 C   0  0  0  0  0  0  0  0  0  0  0  0
  -13.1851   -7.4122   -0.0000 F   0  0  0  0  0  0  0  0  0  0  0  0
  -11.8666   -6.6638   -0.0000 F   0  0  0  0  0  0  0  0  0  0  0  0
  -13.1851   -8.9088   -0.0000 F   0  0  0  0  0  0  0  0  0  0  0  0
  1  2  1  0
  2  3  1  0
  2  4  1  0
  2  5  1  0
  5  6  1  0
  6  7  2  0
  6  8  1  0
  7  9  1  0
  8 10  2  0
  9 11  2  0
  9 12  1  0
 12 13  1  0
 13 14  1  0
 15 13  1  1
 14 16  2  0
 14 17  1  0
 15 18  1  0
 15 19  1  0
 17 20  1  0
 17 21  2  0
 22 18  1  1
 23 19  1  1
 20 24  2  0
 21 25  1  0
 22 26  1  0
 23 27  1  0
 25 28  1  0
 26 29  1  0
 29 30  1  0
 30 31  1  0
 31 32  1  0
 32 33  1  0
 32 34  1  0
 32 35  1  0
 10 11  1  0
 22 23  1  0
 24 25  1  0
 27 29  1  0
M  END
>  <MolRegNo>  (1) 
600580

>  <m>  (1) 
=

>  <Value>  (1) 
100

>  <Unit>  (1) 
nM

>  <Type>  (1) 
IC50

>  <pValue>  (1) 
7

>  <Ligand Efficiency>  (1) 
0

>  <Binding Efficiency>  (1) 
0

>  <Surface Efficiency>  (1) 
0

>  <Assay Index>  (1) 
457653

>  <Assay Category>  (1) 


>  <Assay Organism>  (1) 


>  <Target ID>  (1) 
11365

>  <Target Name>  (1) 
Cytochrome P450 2D6

>  <Target Organism>  (1) 
Homo sapiens

>  <Target Description>  (1) 
Target is a single protein chain

>  <Sequence Accession>  (1) 
P10635

>  <Reference>  (1) 
Bioorg Med Chem Lett 20 (3), 907-911 (2010)

>  <Pubmed ID>  (1) 
20045321

>  <DOI>  (1) 
10.1016/j.bmcl.2009.12.071

$$$$
