4wnv_ligand_91
     RDKit          2D

 12 13  0  0  0  0  0  0  0  0999 V2000
    0.0000   -0.0000   -0.0000 N   0  0  0  0  0  0  0  0  0  0  0  0
    1.3156   -0.7604   -0.0000 C   0  0  0  0  0  0  0  0  0  0  0  0
   -0.0121    1.5449   -0.0000 C   0  0  0  0  0  0  0  0  0  0  0  0
    2.6312    0.0121   -0.0000 C   0  0  0  0  0  0  0  0  0  0  0  0
    1.3035    2.3174   -0.0000 C   0  0  0  0  0  0  0  0  0  0  0  0
    3.9468   -0.7483   -0.0000 C   0  0  0  0  0  0  0  0  0  0  0  0
    2.6191    1.5570   -0.0000 C   0  0  0  0  0  0  0  0  0  0  0  0
    5.3227   -0.1086   -0.0000 N   0  0  0  0  0  0  0  0  0  0  0  0
    4.0675   -2.2449   -0.0000 C   0  0  0  0  0  0  0  0  0  0  0  0
    6.3365   -1.2432   -0.0000 C   0  0  0  0  0  0  0  0  0  0  0  0
    5.5520   -2.5588   -0.0000 N   0  0  0  0  0  0  0  0  0  0  0  0
    6.0348   -3.6692   -0.0000 C   0  0  0  0  0  0  0  0  0  0  0  0
  1  2  2  0
  1  3  1  0
  2  4  1  0
  3  5  2  0
  4  6  1  0
  4  7  2  0
  6  8  1  0
  6  9  2  0
  8 10  2  0
  9 11  1  0
 11 12  1  0
  5  7  1  0
 10 11  1  0
M  END
>  <MolRegNo>  (1) 
299737

>  <m>  (1) 
=

>  <Value>  (1) 
217000

>  <Unit>  (1) 
nM

>  <Type>  (1) 
IC50

>  <pValue>  (1) 
0

>  <Ligand Efficiency>  (1) 
0

>  <Binding Efficiency>  (1) 
0

>  <Surface Efficiency>  (1) 
0

>  <Assay Index>  (1) 
238570

>  <Assay Category>  (1) 


>  <Assay Organism>  (1) 
Homo sapiens

>  <Target ID>  (1) 
11365

>  <Target Name>  (1) 
Cytochrome P450 2D6

>  <Target Organism>  (1) 
Homo sapiens

>  <Target Description>  (1) 
Target is a single protein chain

>  <Sequence Accession>  (1) 
P10635

>  <Reference>  (1) 
J Med Chem 48 (1), 224-239 (2005)

>  <Pubmed ID>  (1) 
15634016

>  <DOI>  (1) 
10.1021/jm049696n

$$$$
