4wnv_ligand_82
     RDKit          2D

 52 57  0  0  1  0  0  0  0  0999 V2000
    0.0000   -0.0000   -0.0000 F   0  0  0  0  0  0  0  0  0  0  0  0
    0.2336    1.5736   -0.0000 C   0  0  0  0  0  0  0  0  0  0  0  0
   -0.9589    0.8851   -0.0000 F   0  0  0  0  0  0  0  0  0  0  0  0
   -1.2293    2.1268   -0.0000 F   0  0  0  0  0  0  0  0  0  0  0  0
    1.5367    2.3357   -0.0000 C   0  0  0  0  0  0  0  0  0  0  0  0
    1.5244    3.8478   -0.0000 N   0  0  0  0  0  0  0  0  0  0  0  0
    0.1967    4.6100   -0.0000 C   0  0  0  0  0  0  0  0  0  0  0  0
   -1.1064    3.8724   -0.0000 O   0  0  0  0  0  0  0  0  0  0  0  0
    0.1844    6.1221   -0.0000 C   0  0  0  0  0  0  0  0  0  0  0  0
    1.4629    6.8720   -0.0000 N   0  0  0  0  0  0  0  0  0  0  0  0
   -1.1064    6.8720   -0.0000 C   0  0  0  0  0  0  0  0  0  0  0  0
    1.4506    8.3841   -0.0000 C   0  0  0  0  0  0  0  0  0  0  0  0
    2.7660    6.1467   -0.0000 C   0  0  0  0  0  0  0  0  0  0  0  0
   -1.1187    8.3841   -0.0000 N   0  0  0  0  0  0  0  0  0  0  0  0
    0.1475    9.1586   -0.0000 C   0  0  0  0  0  0  0  0  0  0  0  0
    4.0445    6.8966   -0.0000 C   0  0  0  0  0  0  0  0  0  0  0  0
   -2.4464    9.1463   -0.0000 C   0  0  0  0  0  0  0  0  0  0  0  0
    4.0322    8.4087   -0.0000 O   0  0  0  0  0  0  0  0  0  0  0  0
    5.3231    6.1713   -0.0000 C   0  0  0  0  0  0  0  0  0  0  0  0
   -3.7495    8.3964   -0.0000 C   0  0  0  0  0  0  0  0  0  0  0  0
    6.6016    6.9212   -0.0000 C   0  0  0  0  0  0  0  0  0  0  0  0
   -3.9216    6.9335   -0.0000 O   0  0  0  0  0  0  0  0  0  0  0  0
   -5.1264    9.0234   -0.0000 C   0  0  0  0  0  0  0  0  0  0  0  0
    7.8801    6.1713   -0.0000 C   0  0  0  0  0  0  0  0  0  0  0  0
    6.5893    8.4333   -0.0000 C   0  0  0  0  0  0  0  0  0  0  0  0
   -5.3845    6.6262   -0.0000 C   0  0  0  0  0  0  0  0  0  0  0  0
   -6.1590    7.9170   -0.0000 C   0  0  0  0  0  0  0  0  0  0  0  0
    7.8678    4.6838   -0.0000 O   0  0  0  0  0  0  0  0  0  0  0  0
    9.1586    6.9335   -0.0000 N   0  0  0  0  0  0  0  0  0  0  0  0
    5.5075    9.5151   -0.0000 C   0  0  0  0  0  0  0  0  0  0  0  0
   -6.0115    5.2739   -0.0000 C   0  0  0  0  0  0  0  0  0  0  0  0
   10.4371    6.1959   -0.0000 C   0  0  0  0  0  0  0  0  0  0  0  0
    4.0445    9.1463   -0.0000 C   0  0  0  0  0  0  0  0  0  0  0  0
    5.8763   11.0026   -0.0000 C   0  0  0  0  0  0  0  0  0  0  0  0
   -5.1386    4.0814   -0.0000 C   0  0  0  0  0  0  0  0  0  0  0  0
   -7.5236    5.1264   -0.0000 C   0  0  0  0  0  0  0  0  0  0  0  0
   10.4248    4.7084   -0.0000 C   0  0  0  0  0  0  0  0  0  0  0  0
   11.7156    6.9581   -0.0000 C   0  0  0  0  0  0  0  0  0  0  0  0
    2.9381   10.2281   -0.0000 C   0  0  0  0  0  0  0  0  0  0  0  0
    4.7944   12.0844   -0.0000 C   0  0  0  0  0  0  0  0  0  0  0  0
   -5.7410    2.7168   -0.0000 C   0  0  0  0  0  0  0  0  0  0  0  0
   -8.1260    3.7618   -0.0000 C   0  0  0  0  0  0  0  0  0  0  0  0
   11.7033    3.9708   -0.0000 C   0  0  0  0  0  0  0  0  0  0  0  0
    9.1217    3.9954   -0.0000 C   0  0  0  0  0  0  0  0  0  0  0  0
   11.7033    8.4702   -0.0000 O   0  0  0  0  0  0  0  0  0  0  0  0
   12.9941    6.2082   -0.0000 C   0  0  0  0  0  0  0  0  0  0  0  0
    3.3315   11.7279   -0.0000 N   0  0  0  0  0  0  0  0  0  0  0  0
   -7.2531    2.5570   -0.0000 C   0  0  0  0  0  0  0  0  0  0  0  0
   12.9819    4.7207   -0.0000 O   0  0  0  0  0  0  0  0  0  0  0  0
   11.6665    2.5079   -0.0000 C   0  0  0  0  0  0  0  0  0  0  0  0
    9.1094    2.5079   -0.0000 C   0  0  0  0  0  0  0  0  0  0  0  0
   10.3756    1.7703   -0.0000 C   0  0  0  0  0  0  0  0  0  0  0  0
  1  2  1  0
  2  3  1  0
  2  4  1  0
  2  5  1  0
  5  6  1  0
  6  7  1  0
  7  8  2  0
  9  7  1  6
  9 10  1  0
  9 11  1  0
 10 12  1  0
 10 13  1  0
 11 14  1  0
 12 15  1  0
 13 16  1  0
 14 17  1  0
 16 18  1  1
 16 19  1  0
 17 20  1  0
 21 19  1  1
 20 22  1  0
 20 23  2  0
 21 24  1  0
 21 25  1  0
 22 26  1  0
 23 27  1  0
 24 28  2  0
 24 29  1  0
 25 30  1  0
 26 31  1  0
 32 29  1  6
 30 33  2  0
 30 34  1  0
 31 35  2  0
 31 36  1  0
 32 37  1  0
 32 38  1  0
 33 39  1  0
 34 40  2  0
 35 41  1  0
 36 42  2  0
 37 43  2  0
 37 44  1  0
 38 45  1  6
 38 46  1  0
 39 47  2  0
 41 48  2  0
 43 49  1  0
 43 50  1  0
 44 51  2  0
 50 52  2  0
 14 15  1  0
 26 27  2  0
 40 47  1  0
 42 48  1  0
 46 49  1  0
 51 52  1  0
M  END
>  <MolRegNo>  (1) 
185014

>  <m>  (1) 
=

>  <Value>  (1) 
14900

>  <Unit>  (1) 
nM

>  <Type>  (1) 
IC50

>  <pValue>  (1) 
4.83

>  <Ligand Efficiency>  (1) 
0

>  <Binding Efficiency>  (1) 
0

>  <Surface Efficiency>  (1) 
0

>  <Assay Index>  (1) 
51638

>  <Assay Category>  (1) 


>  <Assay Organism>  (1) 
Homo sapiens

>  <Target ID>  (1) 
11365

>  <Target Name>  (1) 
Cytochrome P450 2D6

>  <Target Organism>  (1) 
Homo sapiens

>  <Target Description>  (1) 
Target is a single protein chain

>  <Sequence Accession>  (1) 
P10635

>  <Reference>  (1) 
Bioorg Med Chem Lett 13 (19), 3323-3326 (2003)

>  <Pubmed ID>  (1) 
12951118

>  <DOI>  (1) 
10.1016/s0960-894x(03)00680-2

$$$$
