4wnv_ligand_312
     RDKit          2D

 38 42  0  0  1  0  0  0  0  0999 V2000
    0.0000   -0.0000   -0.0000 S   0  0  0  0  0  0  0  0  0  0  0  0
   -1.0672   -1.0672   -0.0000 C   0  0  0  0  0  0  0  0  0  0  0  0
    1.3400   -0.6641   -0.0000 C   0  0  0  0  0  0  0  0  0  0  0  0
   -2.5613   -0.8301   -0.0000 C   0  0  0  0  0  0  0  0  0  0  0  0
   -0.3795   -2.3835   -0.0000 C   0  0  0  0  0  0  0  0  0  0  0  0
    2.6562    0.0474   -0.0000 C   0  0  0  0  0  0  0  0  0  0  0  0
    1.1028   -2.1345   -0.0000 C   0  0  0  0  0  0  0  0  0  0  0  0
   -3.1187    0.5810   -0.0000 C   0  0  0  0  0  0  0  0  0  0  0  0
   -3.4981   -1.9922   -0.0000 C   0  0  0  0  0  0  0  0  0  0  0  0
    2.7036    1.5653   -0.0000 O   0  0  0  0  0  0  0  0  0  0  0  0
    3.9132   -0.7471   -0.0000 N   0  0  0  0  0  0  0  0  0  0  0  0
   -4.6128    0.8182   -0.0000 C   0  0  0  0  0  0  0  0  0  0  0  0
   -4.9922   -1.7669   -0.0000 C   0  0  0  0  0  0  0  0  0  0  0  0
    5.2294   -0.0356   -0.0000 C   0  0  0  0  0  0  0  0  0  0  0  0
    3.8420   -2.2412   -0.0000 C   0  0  0  0  0  0  0  0  0  0  0  0
   -5.5614   -0.3439   -0.0000 C   0  0  0  0  0  0  0  0  0  0  0  0
    6.5694   -0.6878   -0.0000 C   0  0  0  0  0  0  0  0  0  0  0  0
    5.4429    1.4585   -0.0000 C   0  0  0  0  0  0  0  0  0  0  0  0
   -7.0556   -0.1186   -0.0000 O   0  0  0  0  0  0  0  0  0  0  0  0
    7.6010    0.4032   -0.0000 N   0  0  0  0  0  0  0  0  0  0  0  0
    6.9133    1.7194   -0.0000 C   0  0  0  0  0  0  0  0  0  0  0  0
   -7.6247    1.2925   -0.0000 C   0  0  0  0  0  0  0  0  0  0  0  0
    9.0714    0.1897   -0.0000 C   0  0  0  0  0  0  0  0  0  0  0  0
    9.9964    1.3755   -0.0000 O   0  0  0  0  0  0  0  0  0  0  0  0
    9.6169   -1.1977   -0.0000 N   0  0  0  0  0  0  0  0  0  0  0  0
   11.0636   -1.5653   -0.0000 C   0  0  0  0  0  0  0  0  0  0  0  0
    8.7987   -2.4546   -0.0000 C   0  0  0  0  0  0  0  0  0  0  0  0
   11.1584   -3.0475   -0.0000 C   0  0  0  0  0  0  0  0  0  0  0  0
    9.7473   -3.6049   -0.0000 C   0  0  0  0  0  0  0  0  0  0  0  0
   12.4154   -3.8420   -0.0000 N   0  0  0  0  0  0  0  0  0  0  0  0
   13.7316   -3.1305   -0.0000 C   0  0  0  0  0  0  0  0  0  0  0  0
   14.9886   -3.9369   -0.0000 C   0  0  0  0  0  0  0  0  0  0  0  0
   13.7791   -1.6246   -0.0000 C   0  0  0  0  0  0  0  0  0  0  0  0
   16.3048   -3.2254   -0.0000 C   0  0  0  0  0  0  0  0  0  0  0  0
   15.1072   -0.9131   -0.0000 C   0  0  0  0  0  0  0  0  0  0  0  0
   16.3641   -1.7076   -0.0000 C   0  0  0  0  0  0  0  0  0  0  0  0
   17.6448   -2.4428   -0.0000 C   0  0  0  0  0  0  0  0  0  0  0  0
   17.0993   -0.4032   -0.0000 C   0  0  0  0  0  0  0  0  0  0  0  0
  1  2  1  0
  1  3  1  0
  2  4  1  0
  2  5  2  0
  3  6  1  0
  3  7  2  0
  4  8  2  0
  4  9  1  0
  6 10  2  0
  6 11  1  0
  8 12  1  0
  9 13  2  0
 14 11  1  1
 11 15  1  0
 12 16  2  0
 14 17  1  0
 14 18  1  0
 16 19  1  0
 17 20  1  0
 18 21  1  0
 19 22  1  0
 20 23  1  0
 23 24  2  0
 23 25  1  0
 25 26  1  0
 25 27  1  0
 26 28  1  0
 27 29  1  0
 28 30  1  6
 30 31  1  0
 31 32  1  0
 31 33  1  0
 32 34  1  0
 33 35  1  0
 34 36  1  0
 36 37  1  0
 36 38  1  0
  5  7  1  0
 13 16  1  0
 20 21  1  0
 28 29  1  0
 35 36  1  0
M  END
>  <MolRegNo>  (1) 
359261

>  <m>  (1) 
=

>  <Value>  (1) 
5600

>  <Unit>  (1) 
nM

>  <Type>  (1) 
IC50

>  <pValue>  (1) 
5.25

>  <Ligand Efficiency>  (1) 
0

>  <Binding Efficiency>  (1) 
0

>  <Surface Efficiency>  (1) 
0

>  <Assay Index>  (1) 
268140

>  <Assay Category>  (1) 


>  <Assay Organism>  (1) 
Homo sapiens

>  <Target ID>  (1) 
11365

>  <Target Name>  (1) 
Cytochrome P450 2D6

>  <Target Organism>  (1) 
Homo sapiens

>  <Target Description>  (1) 
Target is a single protein chain

>  <Sequence Accession>  (1) 
P10635

>  <Reference>  (1) 
Bioorg Med Chem Lett 16 (18), 4922-4930 (2006)

>  <Pubmed ID>  (1) 
16824755

>  <DOI>  (1) 
10.1016/j.bmcl.2006.06.049

$$$$
