4wnv_ligand_752
     RDKit          2D

 22 24  0  0  0  0  0  0  0  0999 V2000
    0.0000   -0.0000   -0.0000 F   0  0  0  0  0  0  0  0  0  0  0  0
   -1.0084    1.1270   -0.0000 C   0  0  0  0  0  0  0  0  0  0  0  0
   -2.4794    0.8304   -0.0000 C   0  0  0  0  0  0  0  0  0  0  0  0
   -0.5576    2.5624   -0.0000 C   0  0  0  0  0  0  0  0  0  0  0  0
   -3.4758    1.9574   -0.0000 C   0  0  0  0  0  0  0  0  0  0  0  0
   -1.5778    3.6894   -0.0000 C   0  0  0  0  0  0  0  0  0  0  0  0
   -4.9469    1.6608   -0.0000 O   0  0  0  0  0  0  0  0  0  0  0  0
   -3.0369    3.3809   -0.0000 C   0  0  0  0  0  0  0  0  0  0  0  0
   -5.4214    0.2491   -0.0000 C   0  0  0  0  0  0  0  0  0  0  0  0
   -4.0571    4.4961   -0.0000 C   0  0  0  0  0  0  0  0  0  0  0  0
   -6.8687   -0.2017   -0.0000 C   0  0  0  0  0  0  0  0  0  0  0  0
   -4.5435   -0.9609   -0.0000 C   0  0  0  0  0  0  0  0  0  0  0  0
   -6.8805   -1.6964   -0.0000 C   0  0  0  0  0  0  0  0  0  0  0  0
   -8.1736    0.5576   -0.0000 C   0  0  0  0  0  0  0  0  0  0  0  0
   -3.4996    0.1186   -0.0000 O   0  0  0  0  0  0  0  0  0  0  0  0
   -5.4451   -2.1709   -0.0000 C   0  0  0  0  0  0  0  0  0  0  0  0
   -3.2623   -1.6964   -0.0000 C   0  0  0  0  0  0  0  0  0  0  0  0
   -8.1854   -2.4319   -0.0000 C   0  0  0  0  0  0  0  0  0  0  0  0
   -9.4785   -0.1779   -0.0000 C   0  0  0  0  0  0  0  0  0  0  0  0
   -3.2742   -3.1793   -0.0000 N   0  0  0  0  0  0  0  0  0  0  0  0
   -9.4904   -1.6727   -0.0000 C   0  0  0  0  0  0  0  0  0  0  0  0
   -1.9930   -3.9148   -0.0000 C   0  0  0  0  0  0  0  0  0  0  0  0
  1  2  1  0
  2  3  2  0
  2  4  1  0
  3  5  1  0
  4  6  2  0
  5  7  1  0
  5  8  2  0
  9  7  1  6
  8 10  1  0
  9 11  1  0
  9 12  1  0
 11 13  2  0
 11 14  1  0
 12 15  1  1
 12 16  1  0
 12 17  1  0
 13 18  1  0
 14 19  2  0
 17 20  1  0
 18 21  2  0
 20 22  1  0
  6  8  1  0
 13 16  1  0
 19 21  1  0
M  END
>  <MolRegNo>  (1) 
452515

>  <m>  (1) 
=

>  <Value>  (1) 
1000

>  <Unit>  (1) 
nM

>  <Type>  (1) 
IC50

>  <pValue>  (1) 
6

>  <Ligand Efficiency>  (1) 
0

>  <Binding Efficiency>  (1) 
0

>  <Surface Efficiency>  (1) 
0

>  <Assay Index>  (1) 
407281

>  <Assay Category>  (1) 


>  <Assay Organism>  (1) 


>  <Target ID>  (1) 
11365

>  <Target Name>  (1) 
Cytochrome P450 2D6

>  <Target Organism>  (1) 
Homo sapiens

>  <Target Description>  (1) 
Target is a single protein chain

>  <Sequence Accession>  (1) 
P10635

>  <Reference>  (1) 
Bioorg Med Chem Lett 18 (23), 6151-6155 (2008)

>  <Pubmed ID>  (1) 
18954981

>  <DOI>  (1) 
10.1016/j.bmcl.2008.10.013

$$$$
