4wnv_ligand_929
     RDKit          2D

 31 33  0  0  0  0  0  0  0  0999 V2000
    0.0000   -0.0000   -0.0000 Cl  0  0  0  0  0  0  0  0  0  0  0  0
   -0.0119    1.5079   -0.0000 C   0  0  0  0  0  0  0  0  0  0  0  0
   -1.3298    2.2678   -0.0000 C   0  0  0  0  0  0  0  0  0  0  0  0
    1.2823    2.2678   -0.0000 C   0  0  0  0  0  0  0  0  0  0  0  0
   -2.6359    1.5198   -0.0000 C   0  0  0  0  0  0  0  0  0  0  0  0
   -1.3417    3.7876   -0.0000 C   0  0  0  0  0  0  0  0  0  0  0  0
    1.2586    3.7876   -0.0000 C   0  0  0  0  0  0  0  0  0  0  0  0
   -3.9538    0.7836   -0.0000 N   0  0  0  0  0  0  0  0  0  0  0  0
   -0.0594    4.5475   -0.0000 C   0  0  0  0  0  0  0  0  0  0  0  0
    2.5409    4.5594   -0.0000 N   0  0  0  0  0  0  0  0  0  0  0  0
    3.8232    3.8232   -0.0000 C   0  0  0  0  0  0  0  0  0  0  0  0
    2.5171    6.0673   -0.0000 C   0  0  0  0  0  0  0  0  0  0  0  0
    3.9894    2.3390   -0.0000 C   0  0  0  0  0  0  0  0  0  0  0  0
    5.1887    4.4525   -0.0000 C   0  0  0  0  0  0  0  0  0  0  0  0
    3.7995    6.8390   -0.0000 C   0  0  0  0  0  0  0  0  0  0  0  0
    5.4499    2.0422   -0.0000 N   0  0  0  0  0  0  0  0  0  0  0  0
    6.1860    3.3483   -0.0000 C   0  0  0  0  0  0  0  0  0  0  0  0
    3.7639    8.3351   -0.0000 C   0  0  0  0  0  0  0  0  0  0  0  0
    5.0818    6.1029   -0.0000 C   0  0  0  0  0  0  0  0  0  0  0  0
    6.0435    0.6887   -0.0000 C   0  0  0  0  0  0  0  0  0  0  0  0
    5.0462    9.1069   -0.0000 C   0  0  0  0  0  0  0  0  0  0  0  0
    2.4459    9.0831   -0.0000 C   0  0  0  0  0  0  0  0  0  0  0  0
    6.3641    6.8747   -0.0000 C   0  0  0  0  0  0  0  0  0  0  0  0
    5.1530   -0.5106   -0.0000 O   0  0  0  0  0  0  0  0  0  0  0  0
    7.5277    0.5462   -0.0000 C   0  0  0  0  0  0  0  0  0  0  0  0
    6.3404    8.3707   -0.0000 C   0  0  0  0  0  0  0  0  0  0  0  0
    2.4222   10.5910   -0.0000 F   0  0  0  0  0  0  0  0  0  0  0  0
    1.1398    8.3351   -0.0000 F   0  0  0  0  0  0  0  0  0  0  0  0
    1.1280    9.8549   -0.0000 F   0  0  0  0  0  0  0  0  0  0  0  0
    8.3945    1.7691   -0.0000 O   0  0  0  0  0  0  0  0  0  0  0  0
    8.1214   -0.8074   -0.0000 C   0  0  0  0  0  0  0  0  0  0  0  0
  1  2  1  0
  2  3  2  0
  2  4  1  0
  3  5  1  0
  3  6  1  0
  4  7  2  0
  5  8  3  0
  6  9  2  0
  7 10  1  0
 11 10  1  1
 10 12  1  0
 11 13  1  0
 11 14  1  0
 12 15  1  0
 13 16  1  0
 14 17  1  0
 15 18  2  0
 15 19  1  0
 16 20  1  0
 18 21  1  0
 18 22  1  0
 19 23  2  0
 20 24  2  0
 20 25  1  0
 21 26  2  0
 22 27  1  0
 22 28  1  0
 22 29  1  0
 25 30  1  0
 25 31  1  1
  7  9  1  0
 16 17  1  0
 23 26  1  0
M  END
>  <MolRegNo>  (1) 
590189

>  <m>  (1) 
=

>  <Value>  (1) 
19000

>  <Unit>  (1) 
nM

>  <Type>  (1) 
IC50

>  <pValue>  (1) 
4.72

>  <Ligand Efficiency>  (1) 
0

>  <Binding Efficiency>  (1) 
0

>  <Surface Efficiency>  (1) 
0

>  <Assay Index>  (1) 
452357

>  <Assay Category>  (1) 


>  <Assay Organism>  (1) 


>  <Target ID>  (1) 
11365

>  <Target Name>  (1) 
Cytochrome P450 2D6

>  <Target Organism>  (1) 
Homo sapiens

>  <Target Description>  (1) 
Target is a single protein chain

>  <Sequence Accession>  (1) 
P10635

>  <Reference>  (1) 
Bioorg Med Chem Lett 20 (1), 371-374 (2010)

>  <Pubmed ID>  (1) 
19926282

>  <DOI>  (1) 
10.1016/j.bmcl.2009.10.092

$$$$
