4wnv_ligand_748
     RDKit          2D

 22 24  0  0  0  0  0  0  0  0999 V2000
    0.0000   -0.0000   -0.0000 O   0  0  0  0  0  0  0  0  0  0  0  0
    1.4517    0.3213   -0.0000 C   0  0  0  0  0  0  0  0  0  0  0  0
   -0.4760   -1.4160   -0.0000 C   0  0  0  0  0  0  0  0  0  0  0  0
    1.8920    1.7492   -0.0000 C   0  0  0  0  0  0  0  0  0  0  0  0
    2.4394   -0.7854   -0.0000 C   0  0  0  0  0  0  0  0  0  0  0  0
   -1.9277   -1.8682   -0.0000 C   0  0  0  0  0  0  0  0  0  0  0  0
    0.4046   -2.6297   -0.0000 C   0  0  0  0  0  0  0  0  0  0  0  0
    3.3437    2.0824   -0.0000 C   0  0  0  0  0  0  0  0  0  0  0  0
    0.8686    2.8677   -0.0000 C   0  0  0  0  0  0  0  0  0  0  0  0
    3.8911   -0.4641   -0.0000 C   0  0  0  0  0  0  0  0  0  0  0  0
   -1.9396   -3.3675   -0.0000 C   0  0  0  0  0  0  0  0  0  0  0  0
   -3.2366   -1.1066   -0.0000 C   0  0  0  0  0  0  0  0  0  0  0  0
    1.4517   -1.5469   -0.0000 O   0  0  0  0  0  0  0  0  0  0  0  0
   -0.4998   -3.8435   -0.0000 C   0  0  0  0  0  0  0  0  0  0  0  0
    1.6897   -3.3675   -0.0000 C   0  0  0  0  0  0  0  0  0  0  0  0
    4.3432    0.9757   -0.0000 C   0  0  0  0  0  0  0  0  0  0  0  0
    3.7959    3.5222   -0.0000 C   0  0  0  0  0  0  0  0  0  0  0  0
   -3.2485   -4.1053   -0.0000 C   0  0  0  0  0  0  0  0  0  0  0  0
   -4.5455   -1.8444   -0.0000 C   0  0  0  0  0  0  0  0  0  0  0  0
    1.6778   -4.8549   -0.0000 N   0  0  0  0  0  0  0  0  0  0  0  0
   -4.5574   -3.3437   -0.0000 C   0  0  0  0  0  0  0  0  0  0  0  0
    2.9629   -5.5927   -0.0000 C   0  0  0  0  0  0  0  0  0  0  0  0
  1  2  1  0
  3  1  1  6
  2  4  2  0
  2  5  1  0
  3  6  1  0
  3  7  1  0
  4  8  1  0
  4  9  1  0
  5 10  2  0
  6 11  2  0
  6 12  1  0
  7 13  1  1
  7 14  1  0
  7 15  1  0
  8 16  2  0
  8 17  1  0
 11 18  1  0
 12 19  2  0
 15 20  1  0
 18 21  2  0
 20 22  1  0
 10 16  1  0
 11 14  1  0
 19 21  1  0
M  END
>  <MolRegNo>  (1) 
452511

>  <m>  (1) 
=

>  <Value>  (1) 
4000

>  <Unit>  (1) 
nM

>  <Type>  (1) 
IC50

>  <pValue>  (1) 
5.4

>  <Ligand Efficiency>  (1) 
0

>  <Binding Efficiency>  (1) 
0

>  <Surface Efficiency>  (1) 
0

>  <Assay Index>  (1) 
407281

>  <Assay Category>  (1) 


>  <Assay Organism>  (1) 


>  <Target ID>  (1) 
11365

>  <Target Name>  (1) 
Cytochrome P450 2D6

>  <Target Organism>  (1) 
Homo sapiens

>  <Target Description>  (1) 
Target is a single protein chain

>  <Sequence Accession>  (1) 
P10635

>  <Reference>  (1) 
Bioorg Med Chem Lett 18 (23), 6151-6155 (2008)

>  <Pubmed ID>  (1) 
18954981

>  <DOI>  (1) 
10.1016/j.bmcl.2008.10.013

$$$$
