4wnv_ligand_5
     RDKit          2D

 52 57  0  0  1  0  0  0  0  0999 V2000
    0.0000   -0.0000   -0.0000 F   0  0  0  0  0  0  0  0  0  0  0  0
    1.1712    0.6954   -0.0000 C   0  0  0  0  0  0  0  0  0  0  0  0
   -0.3172    1.2566   -0.0000 F   0  0  0  0  0  0  0  0  0  0  0  0
    0.9150   -0.8418   -0.0000 F   0  0  0  0  0  0  0  0  0  0  0  0
    2.4399    1.4639   -0.0000 C   0  0  0  0  0  0  0  0  0  0  0  0
    2.4277    2.9767   -0.0000 N   0  0  0  0  0  0  0  0  0  0  0  0
    1.1102    3.7331   -0.0000 C   0  0  0  0  0  0  0  0  0  0  0  0
   -0.2196    2.9889   -0.0000 O   0  0  0  0  0  0  0  0  0  0  0  0
    1.0858    5.2458   -0.0000 C   0  0  0  0  0  0  0  0  0  0  0  0
    2.3667    6.0266   -0.0000 N   0  0  0  0  0  0  0  0  0  0  0  0
   -0.2318    6.0144   -0.0000 C   0  0  0  0  0  0  0  0  0  0  0  0
    2.3423    7.5393   -0.0000 C   0  0  0  0  0  0  0  0  0  0  0  0
    3.6477    5.2824   -0.0000 C   0  0  0  0  0  0  0  0  0  0  0  0
   -0.2562    7.5393   -0.0000 N   0  0  0  0  0  0  0  0  0  0  0  0
    1.0126    8.2835   -0.0000 C   0  0  0  0  0  0  0  0  0  0  0  0
    4.9286    6.0632   -0.0000 C   0  0  0  0  0  0  0  0  0  0  0  0
   -1.5615    8.2957   -0.0000 C   0  0  0  0  0  0  0  0  0  0  0  0
    4.9042    7.5759   -0.0000 O   0  0  0  0  0  0  0  0  0  0  0  0
    6.2340    5.3190   -0.0000 C   0  0  0  0  0  0  0  0  0  0  0  0
   -2.8669    7.5515   -0.0000 C   0  0  0  0  0  0  0  0  0  0  0  0
    7.5149    6.0876   -0.0000 C   0  0  0  0  0  0  0  0  0  0  0  0
   -3.0377    6.0876   -0.0000 O   0  0  0  0  0  0  0  0  0  0  0  0
   -4.2698    8.1737   -0.0000 C   0  0  0  0  0  0  0  0  0  0  0  0
    8.8081    5.3678   -0.0000 C   0  0  0  0  0  0  0  0  0  0  0  0
    7.4905    7.6003   -0.0000 C   0  0  0  0  0  0  0  0  0  0  0  0
   -4.5138    5.7826   -0.0000 C   0  0  0  0  0  0  0  0  0  0  0  0
   -5.2824    7.0635   -0.0000 C   0  0  0  0  0  0  0  0  0  0  0  0
    8.8081    3.8795   -0.0000 O   0  0  0  0  0  0  0  0  0  0  0  0
   10.0890    6.1486   -0.0000 N   0  0  0  0  0  0  0  0  0  0  0  0
    8.7715    8.3811   -0.0000 C   0  0  0  0  0  0  0  0  0  0  0  0
   -5.1360    4.4162   -0.0000 C   0  0  0  0  0  0  0  0  0  0  0  0
   11.6018    5.9656   -0.0000 C   0  0  0  0  0  0  0  0  0  0  0  0
    8.7471    9.8938   -0.0000 C   0  0  0  0  0  0  0  0  0  0  0  0
   10.0646    7.6613   -0.0000 C   0  0  0  0  0  0  0  0  0  0  0  0
   -4.2576    3.2329   -0.0000 N   0  0  0  0  0  0  0  0  0  0  0  0
   -6.6366    4.2820   -0.0000 C   0  0  0  0  0  0  0  0  0  0  0  0
   12.0654    4.5626   -0.0000 C   0  0  0  0  0  0  0  0  0  0  0  0
   12.5655    7.1001   -0.0000 C   0  0  0  0  0  0  0  0  0  0  0  0
   10.0280   10.6624   -0.0000 C   0  0  0  0  0  0  0  0  0  0  0  0
   11.3456    8.4299   -0.0000 C   0  0  0  0  0  0  0  0  0  0  0  0
   -4.8676    1.8665   -0.0000 C   0  0  0  0  0  0  0  0  0  0  0  0
   -7.2587    2.9035   -0.0000 C   0  0  0  0  0  0  0  0  0  0  0  0
   13.5171    4.2698   -0.0000 C   0  0  0  0  0  0  0  0  0  0  0  0
   11.0528    3.4525   -0.0000 C   0  0  0  0  0  0  0  0  0  0  0  0
   12.0776    8.5397   -0.0000 O   0  0  0  0  0  0  0  0  0  0  0  0
   14.0295    6.8196   -0.0000 C   0  0  0  0  0  0  0  0  0  0  0  0
   11.3212    9.9426   -0.0000 C   0  0  0  0  0  0  0  0  0  0  0  0
   -6.3804    1.7079   -0.0000 C   0  0  0  0  0  0  0  0  0  0  0  0
   14.5053    5.4044   -0.0000 O   0  0  0  0  0  0  0  0  0  0  0  0
   13.9807    2.8791   -0.0000 C   0  0  0  0  0  0  0  0  0  0  0  0
   11.5164    2.0495   -0.0000 C   0  0  0  0  0  0  0  0  0  0  0  0
   12.9925    1.7689   -0.0000 C   0  0  0  0  0  0  0  0  0  0  0  0
  1  2  1  0
  2  3  1  0
  2  4  1  0
  2  5  1  0
  5  6  1  0
  6  7  1  0
  7  8  2  0
  9  7  1  6
  9 10  1  0
  9 11  1  0
 10 12  1  0
 10 13  1  0
 11 14  1  0
 12 15  1  0
 13 16  1  0
 14 17  1  0
 16 18  1  1
 16 19  1  0
 17 20  1  0
 21 19  1  1
 20 22  1  0
 20 23  2  0
 21 24  1  0
 21 25  1  0
 22 26  1  0
 23 27  1  0
 24 28  2  0
 24 29  1  0
 25 30  1  0
 26 31  1  0
 32 29  1  6
 30 33  2  0
 30 34  1  0
 31 35  2  0
 31 36  1  0
 32 37  1  0
 32 38  1  0
 33 39  1  0
 34 40  2  0
 35 41  1  0
 36 42  2  0
 37 43  2  0
 37 44  1  0
 38 45  1  6
 38 46  1  0
 39 47  2  0
 41 48  2  0
 43 49  1  0
 43 50  1  0
 44 51  2  0
 50 52  2  0
 14 15  1  0
 26 27  2  0
 40 47  1  0
 42 48  1  0
 46 49  1  0
 51 52  1  0
M  END
>  <MolRegNo>  (1) 
2038625

>  <m>  (1) 
=

>  <Value>  (1) 
29600

>  <Unit>  (1) 
nM

>  <Type>  (1) 
IC50

>  <pValue>  (1) 
4.53

>  <Ligand Efficiency>  (1) 
0

>  <Binding Efficiency>  (1) 
0

>  <Surface Efficiency>  (1) 
0

>  <Assay Index>  (1) 
51632

>  <Assay Category>  (1) 


>  <Assay Organism>  (1) 
Homo sapiens

>  <Target ID>  (1) 
11365

>  <Target Name>  (1) 
Cytochrome P450 2D6

>  <Target Organism>  (1) 
Homo sapiens

>  <Target Description>  (1) 
Target is a single protein chain

>  <Sequence Accession>  (1) 
P10635

>  <Reference>  (1) 
Bioorg Med Chem Lett 13 (15), 2569-2572 (2003)

>  <Pubmed ID>  (1) 
12852968

>  <DOI>  (1) 
10.1016/s0960-894x(03)00475-x

$$$$
