4wnv_ligand_492
     RDKit          2D

 35 38  0  0  1  0  0  0  0  0999 V2000
    0.0000   -0.0000   -0.0000 F   0  0  0  0  0  0  0  0  0  0  0  0
    1.4944   -0.0000   -0.0000 C   0  0  0  0  0  0  0  0  0  0  0  0
    2.2297   -1.2928   -0.0000 C   0  0  0  0  0  0  0  0  0  0  0  0
    2.2416    1.3046   -0.0000 C   0  0  0  0  0  0  0  0  0  0  0  0
    3.7241   -1.2928   -0.0000 C   0  0  0  0  0  0  0  0  0  0  0  0
    3.7241    1.3165   -0.0000 C   0  0  0  0  0  0  0  0  0  0  0  0
    4.4713    0.0237   -0.0000 C   0  0  0  0  0  0  0  0  0  0  0  0
    5.9657    0.0356   -0.0000 C   0  0  0  0  0  0  0  0  0  0  0  0
    6.7129    1.3521   -0.0000 C   0  0  0  0  0  0  0  0  0  0  0  0
    8.2073    1.3639   -0.0000 C   0  0  0  0  0  0  0  0  0  0  0  0
    5.9420    2.6685   -0.0000 C   0  0  0  0  0  0  0  0  0  0  0  0
    8.9545    2.6685   -0.0000 N   0  0  0  0  0  0  0  0  0  0  0  0
    6.6892    3.9850   -0.0000 C   0  0  0  0  0  0  0  0  0  0  0  0
   10.4488    2.6685   -0.0000 C   0  0  0  0  0  0  0  0  0  0  0  0
    8.1954    3.9850   -0.0000 C   0  0  0  0  0  0  0  0  0  0  0  0
   11.1960    3.9850   -0.0000 O   0  0  0  0  0  0  0  0  0  0  0  0
   11.1842    1.3758   -0.0000 C   0  0  0  0  0  0  0  0  0  0  0  0
   12.6786    1.3758   -0.0000 C   0  0  0  0  0  0  0  0  0  0  0  0
   13.4258    2.6923   -0.0000 N   0  0  0  0  0  0  0  0  0  0  0  0
   13.4139    0.0830   -0.0000 C   0  0  0  0  0  0  0  0  0  0  0  0
   14.9201    2.6923   -0.0000 C   0  0  0  0  0  0  0  0  0  0  0  0
   15.6555    1.3995   -0.0000 O   0  0  0  0  0  0  0  0  0  0  0  0
   15.6673    4.0088   -0.0000 N   0  0  0  0  0  0  0  0  0  0  0  0
   17.1617    4.0088   -0.0000 C   0  0  0  0  0  0  0  0  0  0  0  0
   17.8852    2.7160   -0.0000 C   0  0  0  0  0  0  0  0  0  0  0  0
   17.8971    5.3252   -0.0000 C   0  0  0  0  0  0  0  0  0  0  0  0
   19.3796    2.7160   -0.0000 C   0  0  0  0  0  0  0  0  0  0  0  0
   19.3914    5.3371   -0.0000 C   0  0  0  0  0  0  0  0  0  0  0  0
   20.1268    1.4232   -0.0000 C   0  0  0  0  0  0  0  0  0  0  0  0
   20.1268    4.0325   -0.0000 C   0  0  0  0  0  0  0  0  0  0  0  0
   21.6093    1.2690   -0.0000 N   0  0  0  0  0  0  0  0  0  0  0  0
   19.4982    0.0593   -0.0000 N   0  0  0  0  0  0  0  0  0  0  0  0
   21.9058   -0.1898   -0.0000 C   0  0  0  0  0  0  0  0  0  0  0  0
   20.6012   -0.9488   -0.0000 C   0  0  0  0  0  0  0  0  0  0  0  0
   18.0157   -0.2372   -0.0000 C   0  0  0  0  0  0  0  0  0  0  0  0
  1  2  1  0
  2  3  2  0
  2  4  1  0
  3  5  1  0
  4  6  2  0
  5  7  2  0
  7  8  1  0
  9  8  1  6
  9 10  1  0
  9 11  1  0
 10 12  1  0
 11 13  1  0
 12 14  1  0
 12 15  1  0
 14 16  1  6
 14 17  1  0
 17 18  1  0
 18 19  1  0
 18 20  1  6
 19 21  1  0
 21 22  2  0
 21 23  1  0
 23 24  1  0
 24 25  2  0
 24 26  1  0
 25 27  1  0
 26 28  2  0
 27 29  1  0
 27 30  2  0
 29 31  2  0
 29 32  1  0
 31 33  1  0
 32 34  1  0
 32 35  1  0
  6  7  1  0
 13 15  1  0
 28 30  1  0
 33 34  2  0
M  END
>  <MolRegNo>  (1) 
437970

>  <m>  (1) 
=

>  <Value>  (1) 
3300

>  <Unit>  (1) 
nM

>  <Type>  (1) 
IC50

>  <pValue>  (1) 
5.48

>  <Ligand Efficiency>  (1) 
0

>  <Binding Efficiency>  (1) 
0

>  <Surface Efficiency>  (1) 
0

>  <Assay Index>  (1) 
314783

>  <Assay Category>  (1) 


>  <Assay Organism>  (1) 


>  <Target ID>  (1) 
11365

>  <Target Name>  (1) 
Cytochrome P450 2D6

>  <Target Organism>  (1) 
Homo sapiens

>  <Target Description>  (1) 
Target is a single protein chain

>  <Sequence Accession>  (1) 
P10635

>  <Reference>  (1) 
Bioorg Med Chem Lett 18 (2), 576-585 (2008)

>  <Pubmed ID>  (1) 
18096386

>  <DOI>  (1) 
10.1016/j.bmcl.2007.11.067

$$$$
