4wnv_ligand_203
     RDKit          2D

 28 31  0  0  1  0  0  0  0  0999 V2000
    0.0000   -0.0000   -0.0000 O   0  0  0  0  0  0  0  0  0  0  0  0
   -0.0119   -1.4871   -0.0000 C   0  0  0  0  0  0  0  0  0  0  0  0
    1.2730   -2.2247   -0.0000 N   0  0  0  0  0  0  0  0  0  0  0  0
   -1.3206   -2.2247   -0.0000 C   0  0  0  0  0  0  0  0  0  0  0  0
    2.5578   -1.4633   -0.0000 C   0  0  0  0  0  0  0  0  0  0  0  0
    1.2611   -3.7118   -0.0000 C   0  0  0  0  0  0  0  0  0  0  0  0
   -2.6411   -1.4633   -0.0000 O   0  0  0  0  0  0  0  0  0  0  0  0
   -1.3325   -3.7118   -0.0000 C   0  0  0  0  0  0  0  0  0  0  0  0
    2.5459    0.0476   -0.0000 C   0  0  0  0  0  0  0  0  0  0  0  0
    3.8427   -2.2009   -0.0000 C   0  0  0  0  0  0  0  0  0  0  0  0
   -3.9498   -2.2009   -0.0000 C   0  0  0  0  0  0  0  0  0  0  0  0
   -2.6530   -4.4495   -0.0000 C   0  0  0  0  0  0  0  0  0  0  0  0
    1.2373    0.8090   -0.0000 C   0  0  0  0  0  0  0  0  0  0  0  0
    3.8427    0.8090   -0.0000 C   0  0  0  0  0  0  0  0  0  0  0  0
    5.1276   -1.4395   -0.0000 N   0  0  0  0  0  0  0  0  0  0  0  0
   -3.9736   -3.6880   -0.0000 C   0  0  0  0  0  0  0  0  0  0  0  0
   -5.2465   -1.4395   -0.0000 C   0  0  0  0  0  0  0  0  0  0  0  0
    1.2254    2.3318   -0.0000 C   0  0  0  0  0  0  0  0  0  0  0  0
    3.8308    2.3318   -0.0000 C   0  0  0  0  0  0  0  0  0  0  0  0
    6.4838   -2.0344   -0.0000 C   0  0  0  0  0  0  0  0  0  0  0  0
    5.2703    0.0714   -0.0000 C   0  0  0  0  0  0  0  0  0  0  0  0
   -5.2703   -4.4138   -0.0000 C   0  0  0  0  0  0  0  0  0  0  0  0
   -6.5552   -2.1652   -0.0000 C   0  0  0  0  0  0  0  0  0  0  0  0
    2.5103    3.0932   -0.0000 C   0  0  0  0  0  0  0  0  0  0  0  0
    7.4713   -0.9042   -0.0000 C   0  0  0  0  0  0  0  0  0  0  0  0
    6.7218    0.3926   -0.0000 C   0  0  0  0  0  0  0  0  0  0  0  0
   -6.5671   -3.6524   -0.0000 C   0  0  0  0  0  0  0  0  0  0  0  0
    8.9465   -1.0469   -0.0000 O   0  0  0  0  0  0  0  0  0  0  0  0
  1  2  2  0
  2  3  1  0
  4  2  1  6
  5  3  1  0
  3  6  1  0
  4  7  1  0
  4  8  1  0
  5  9  1  0
  5 10  1  1
  7 11  1  0
  8 12  1  0
  9 13  2  0
  9 14  1  0
 10 15  1  0
 11 16  2  0
 11 17  1  0
 13 18  1  0
 14 19  2  0
 15 20  1  0
 15 21  1  0
 16 22  1  0
 17 23  2  0
 18 24  2  0
 20 25  1  0
 21 26  1  0
 22 27  2  0
 25 28  1  6
 12 16  1  0
 19 24  1  0
 23 27  1  0
 25 26  1  0
M  END
>  <MolRegNo>  (1) 
331961

>  <m>  (1) 
=

>  <Value>  (1) 
1600

>  <Unit>  (1) 
nM

>  <Type>  (1) 
IC50

>  <pValue>  (1) 
5.8

>  <Ligand Efficiency>  (1) 
0

>  <Binding Efficiency>  (1) 
0

>  <Surface Efficiency>  (1) 
0

>  <Assay Index>  (1) 
253815

>  <Assay Category>  (1) 


>  <Assay Organism>  (1) 
Homo sapiens

>  <Target ID>  (1) 
11365

>  <Target Name>  (1) 
Cytochrome P450 2D6

>  <Target Organism>  (1) 
Homo sapiens

>  <Target Description>  (1) 
Target is a single protein chain

>  <Sequence Accession>  (1) 
P10635

>  <Reference>  (1) 
Bioorg Med Chem Lett 15 (23), 5114-5119 (2005)

>  <Pubmed ID>  (1) 
16203140

>  <DOI>  (1) 
10.1016/j.bmcl.2005.08.094

$$$$
