4wnv_ligand_131
     RDKit          2D

 28 29  0  0  0  0  0  0  0  0999 V2000
    0.0000   -0.0000   -0.0000 S   0  0  0  0  0  0  0  0  0  0  0  0
    1.2891    0.7639   -0.0000 C   0  0  0  0  0  0  0  0  0  0  0  0
   -1.3130    0.7639   -0.0000 C   0  0  0  0  0  0  0  0  0  0  0  0
    2.5783    0.0358   -0.0000 C   0  0  0  0  0  0  0  0  0  0  0  0
    1.2653    2.2799   -0.0000 C   0  0  0  0  0  0  0  0  0  0  0  0
   -2.6260    0.0119   -0.0000 C   0  0  0  0  0  0  0  0  0  0  0  0
    3.8555    0.8117   -0.0000 C   0  0  0  0  0  0  0  0  0  0  0  0
    2.5425   -1.4562   -0.0000 C   0  0  0  0  0  0  0  0  0  0  0  0
    2.5425    3.0677   -0.0000 C   0  0  0  0  0  0  0  0  0  0  0  0
   -3.9390   -0.7401   -0.0000 N   0  0  0  0  0  0  0  0  0  0  0  0
   -1.3369   -0.7281   -0.0000 C   0  0  0  0  0  0  0  0  0  0  0  0
   -1.8979    1.3369   -0.0000 C   0  0  0  0  0  0  0  0  0  0  0  0
    3.8316    2.3276   -0.0000 C   0  0  0  0  0  0  0  0  0  0  0  0
   -5.2520    0.0239   -0.0000 C   0  0  0  0  0  0  0  0  0  0  0  0
   -6.5770   -0.7162   -0.0000 C   0  0  0  0  0  0  0  0  0  0  0  0
   -6.5889   -2.2082   -0.0000 O   0  0  0  0  0  0  0  0  0  0  0  0
   -7.8661    0.0477   -0.0000 C   0  0  0  0  0  0  0  0  0  0  0  0
   -9.1791   -0.7043   -0.0000 O   0  0  0  0  0  0  0  0  0  0  0  0
   -9.1791   -2.1963   -0.0000 C   0  0  0  0  0  0  0  0  0  0  0  0
   -7.8900   -2.9483   -0.0000 C   0  0  0  0  0  0  0  0  0  0  0  0
  -10.4922   -2.9483   -0.0000 C   0  0  0  0  0  0  0  0  0  0  0  0
   -7.9019   -4.4404   -0.0000 C   0  0  0  0  0  0  0  0  0  0  0  0
  -10.5041   -4.4404   -0.0000 C   0  0  0  0  0  0  0  0  0  0  0  0
   -9.2150   -5.1685   -0.0000 C   0  0  0  0  0  0  0  0  0  0  0  0
   -9.2388   -6.6606   -0.0000 C   0  0  0  0  0  0  0  0  0  0  0  0
   -7.9497   -7.4006   -0.0000 C   0  0  0  0  0  0  0  0  0  0  0  0
   -6.6844   -6.6247   -0.0000 O   0  0  0  0  0  0  0  0  0  0  0  0
   -5.1804   -6.6128   -0.0000 C   0  0  0  0  0  0  0  0  0  0  0  0
  1  2  1  0
  1  3  1  0
  2  4  2  0
  2  5  1  0
  3  6  1  0
  4  7  1  0
  4  8  1  0
  5  9  2  0
  6 10  1  0
  6 11  1  0
  6 12  1  0
  7 13  2  0
 10 14  1  0
 14 15  1  0
 15 16  1  0
 15 17  1  0
 17 18  1  0
 18 19  1  0
 19 20  2  0
 19 21  1  0
 20 22  1  0
 21 23  2  0
 22 24  2  0
 24 25  1  0
 25 26  1  0
 26 27  1  0
 27 28  1  0
  9 13  1  0
 23 24  1  0
M  END
>  <MolRegNo>  (1) 
301309

>  <m>  (1) 
=

>  <Value>  (1) 
280

>  <Unit>  (1) 
nM

>  <Type>  (1) 
IC50

>  <pValue>  (1) 
6.55

>  <Ligand Efficiency>  (1) 
0

>  <Binding Efficiency>  (1) 
0

>  <Surface Efficiency>  (1) 
0

>  <Assay Index>  (1) 
238811

>  <Assay Category>  (1) 


>  <Assay Organism>  (1) 
Homo sapiens

>  <Target ID>  (1) 
11365

>  <Target Name>  (1) 
Cytochrome P450 2D6

>  <Target Organism>  (1) 
Homo sapiens

>  <Target Description>  (1) 
Target is a single protein chain

>  <Sequence Accession>  (1) 
P10635

>  <Reference>  (1) 
Bioorg Med Chem Lett 15 (17), 3816-3820 (2005)

>  <Pubmed ID>  (1) 
15993593

>  <DOI>  (1) 
10.1016/j.bmcl.2005.06.007

$$$$
