4wnv_ligand_136
     RDKit          2D

 19 20  0  0  0  0  0  0  0  0999 V2000
    0.0000   -0.0000   -0.0000 O   0  0  0  0  0  0  0  0  0  0  0  0
   -0.0118   -1.4875   -0.0000 C   0  0  0  0  0  0  0  0  0  0  0  0
    1.2868    0.7673   -0.0000 C   0  0  0  0  0  0  0  0  0  0  0  0
   -1.3340   -2.2312   -0.0000 C   0  0  0  0  0  0  0  0  0  0  0  0
    1.2750   -2.2312   -0.0000 C   0  0  0  0  0  0  0  0  0  0  0  0
    2.5854    0.0236   -0.0000 C   0  0  0  0  0  0  0  0  0  0  0  0
   -1.3458   -3.7187   -0.0000 C   0  0  0  0  0  0  0  0  0  0  0  0
   -2.6562   -1.4639   -0.0000 C   0  0  0  0  0  0  0  0  0  0  0  0
    1.2632   -3.7187   -0.0000 C   0  0  0  0  0  0  0  0  0  0  0  0
    2.5617   -1.4639   -0.0000 O   0  0  0  0  0  0  0  0  0  0  0  0
    3.8721    0.7910   -0.0000 C   0  0  0  0  0  0  0  0  0  0  0  0
   -0.0472   -4.4624   -0.0000 C   0  0  0  0  0  0  0  0  0  0  0  0
   -2.6680   -4.4624   -0.0000 C   0  0  0  0  0  0  0  0  0  0  0  0
   -3.9666   -2.2076   -0.0000 C   0  0  0  0  0  0  0  0  0  0  0  0
    5.1589    0.0472   -0.0000 N   0  0  0  0  0  0  0  0  0  0  0  0
   -3.9784   -3.6950   -0.0000 C   0  0  0  0  0  0  0  0  0  0  0  0
    6.4457    0.8146   -0.0000 C   0  0  0  0  0  0  0  0  0  0  0  0
    6.4457    2.3256   -0.0000 C   0  0  0  0  0  0  0  0  0  0  0  0
    7.7442    0.0708   -0.0000 C   0  0  0  0  0  0  0  0  0  0  0  0
  1  2  1  0
  1  3  1  0
  2  4  2  0
  2  5  1  0
  3  6  1  0
  4  7  1  0
  4  8  1  0
  5  9  2  0
  6 10  1  0
  6 11  1  0
  7 12  2  0
  7 13  1  0
  8 14  2  0
 11 15  1  0
 13 16  2  0
 15 17  1  0
 17 18  1  0
 17 19  1  0
  9 12  1  0
 14 16  1  0
M  END
>  <MolRegNo>  (1) 
1370

>  <m>  (1) 
=

>  <Value>  (1) 
1900

>  <Unit>  (1) 
nM

>  <Type>  (1) 
IC50

>  <pValue>  (1) 
5.72

>  <Ligand Efficiency>  (1) 
0

>  <Binding Efficiency>  (1) 
0

>  <Surface Efficiency>  (1) 
0

>  <Assay Index>  (1) 
238811

>  <Assay Category>  (1) 


>  <Assay Organism>  (1) 
Homo sapiens

>  <Target ID>  (1) 
11365

>  <Target Name>  (1) 
Cytochrome P450 2D6

>  <Target Organism>  (1) 
Homo sapiens

>  <Target Description>  (1) 
Target is a single protein chain

>  <Sequence Accession>  (1) 
P10635

>  <Reference>  (1) 
Bioorg Med Chem Lett 15 (17), 3816-3820 (2005)

>  <Pubmed ID>  (1) 
15993593

>  <DOI>  (1) 
10.1016/j.bmcl.2005.06.007

$$$$
