4wnv_ligand_149
     RDKit          2D

 21 23  0  0  0  0  0  0  0  0999 V2000
    0.0000   -0.0000   -0.0000 Cl  0  0  0  0  0  0  0  0  0  0  0  0
   -1.5087    0.0118   -0.0000 C   0  0  0  0  0  0  0  0  0  0  0  0
   -2.2631   -1.2730   -0.0000 C   0  0  0  0  0  0  0  0  0  0  0  0
   -2.2631    1.3319   -0.0000 C   0  0  0  0  0  0  0  0  0  0  0  0
   -3.7718   -1.2612   -0.0000 C   0  0  0  0  0  0  0  0  0  0  0  0
   -3.7718    1.3319   -0.0000 C   0  0  0  0  0  0  0  0  0  0  0  0
   -4.5144    0.0471   -0.0000 C   0  0  0  0  0  0  0  0  0  0  0  0
   -6.0231    0.0589   -0.0000 C   0  0  0  0  0  0  0  0  0  0  0  0
   -7.5319    0.1061   -0.0000 N   0  0  0  0  0  0  0  0  0  0  0  0
   -6.0467   -1.4262   -0.0000 C   0  0  0  0  0  0  0  0  0  0  0  0
   -8.2627    1.4380   -0.0000 C   0  0  0  0  0  0  0  0  0  0  0  0
   -8.3334   -1.1787   -0.0000 C   0  0  0  0  0  0  0  0  0  0  0  0
   -7.3551   -2.1452   -0.0000 C   0  0  0  0  0  0  0  0  0  0  0  0
   -4.7619   -2.1452   -0.0000 C   0  0  0  0  0  0  0  0  0  0  0  0
   -9.7714    1.4734   -0.0000 C   0  0  0  0  0  0  0  0  0  0  0  0
   -9.8421   -1.1315   -0.0000 C   0  0  0  0  0  0  0  0  0  0  0  0
   -7.3786   -3.6304   -0.0000 C   0  0  0  0  0  0  0  0  0  0  0  0
   -4.7737   -3.6304   -0.0000 C   0  0  0  0  0  0  0  0  0  0  0  0
  -10.5611    0.1886   -0.0000 N   0  0  0  0  0  0  0  0  0  0  0  0
   -6.0939   -4.3612   -0.0000 C   0  0  0  0  0  0  0  0  0  0  0  0
   -6.1057   -5.8463   -0.0000 Cl  0  0  0  0  0  0  0  0  0  0  0  0
  1  2  1  0
  2  3  2  0
  2  4  1  0
  3  5  1  0
  4  6  2  0
  5  7  2  0
  7  8  1  0
  8  9  1  0
  8 10  1  0
  9 11  1  0
  9 12  1  0
 10 13  2  0
 10 14  1  0
 11 15  1  0
 12 16  1  0
 13 17  1  0
 14 18  2  0
 15 19  1  0
 17 20  2  0
 20 21  1  0
  6  7  1  0
 16 19  1  0
 18 20  1  0
M  END
>  <MolRegNo>  (1) 
224527

>  <m>  (1) 
=

>  <Value>  (1) 
7300

>  <Unit>  (1) 
nM

>  <Type>  (1) 
IC50

>  <pValue>  (1) 
5.14

>  <Ligand Efficiency>  (1) 
0

>  <Binding Efficiency>  (1) 
0

>  <Surface Efficiency>  (1) 
0

>  <Assay Index>  (1) 
237541

>  <Assay Category>  (1) 


>  <Assay Organism>  (1) 


>  <Target ID>  (1) 
11365

>  <Target Name>  (1) 
Cytochrome P450 2D6

>  <Target Organism>  (1) 
Homo sapiens

>  <Target Description>  (1) 
Target is a single protein chain

>  <Sequence Accession>  (1) 
P10635

>  <Reference>  (1) 
J Med Chem 47 (22), 5340-5346 (2004)

>  <Pubmed ID>  (1) 
15481972

>  <DOI>  (1) 
10.1021/jm049934e

$$$$
