4wnv_ligand_1006
     RDKit          2D

 24 27  0  0  0  0  0  0  0  0999 V2000
    0.0000   -0.0000   -0.0000 S   0  0  0  0  0  0  0  0  0  0  0  0
   -1.4543   -0.4530   -0.0000 C   0  0  0  0  0  0  0  0  0  0  0  0
    0.8821   -1.2039   -0.0000 C   0  0  0  0  0  0  0  0  0  0  0  0
   -1.4662   -1.9549   -0.0000 C   0  0  0  0  0  0  0  0  0  0  0  0
   -2.7655    0.2980   -0.0000 C   0  0  0  0  0  0  0  0  0  0  0  0
   -0.0119   -2.4198   -0.0000 C   0  0  0  0  0  0  0  0  0  0  0  0
    2.3721   -1.1801   -0.0000 C   0  0  0  0  0  0  0  0  0  0  0  0
   -2.7774   -2.6940   -0.0000 C   0  0  0  0  0  0  0  0  0  0  0  0
   -4.0767   -0.4410   -0.0000 C   0  0  0  0  0  0  0  0  0  0  0  0
    0.4530   -3.8264   -0.0000 C   0  0  0  0  0  0  0  0  0  0  0  0
    3.1112   -2.4675   -0.0000 C   0  0  0  0  0  0  0  0  0  0  0  0
   -4.0886   -1.9311   -0.0000 C   0  0  0  0  0  0  0  0  0  0  0  0
   -0.8583   -4.5654   -0.0000 C   0  0  0  0  0  0  0  0  0  0  0  0
    1.9072   -4.1125   -0.0000 C   0  0  0  0  0  0  0  0  0  0  0  0
    4.6012   -2.4436   -0.0000 N   0  0  0  0  0  0  0  0  0  0  0  0
   -0.8583   -6.0435   -0.0000 N   0  0  0  0  0  0  0  0  0  0  0  0
   -2.1695   -3.8025   -0.0000 C   0  0  0  0  0  0  0  0  0  0  0  0
    5.4714   -3.6357   -0.0000 C   0  0  0  0  0  0  0  0  0  0  0  0
    5.4594   -1.2039   -0.0000 C   0  0  0  0  0  0  0  0  0  0  0  0
   -2.1576   -6.7945   -0.0000 C   0  0  0  0  0  0  0  0  0  0  0  0
   -3.4807   -4.5416   -0.0000 C   0  0  0  0  0  0  0  0  0  0  0  0
    6.8779   -3.1469   -0.0000 C   0  0  0  0  0  0  0  0  0  0  0  0
    6.8779   -1.6450   -0.0000 C   0  0  0  0  0  0  0  0  0  0  0  0
   -3.4807   -6.0435   -0.0000 C   0  0  0  0  0  0  0  0  0  0  0  0
  1  2  1  0
  1  3  1  0
  2  4  2  0
  2  5  1  0
  3  6  2  0
  3  7  1  0
  4  8  1  0
  5  9  2  0
  6 10  1  0
  7 11  1  0
  8 12  2  0
 10 13  1  0
 10 14  1  6
 11 15  1  0
 13 16  2  0
 13 17  1  0
 15 18  1  0
 15 19  1  0
 16 20  1  0
 17 21  2  0
 18 22  1  0
 19 23  1  0
 20 24  2  0
  4  6  1  0
  9 12  1  0
 21 24  1  0
 22 23  1  0
M  END
>  <MolRegNo>  (1) 
619908

>  <m>  (1) 
=

>  <Value>  (1) 
2700

>  <Unit>  (1) 
nM

>  <Type>  (1) 
IC50

>  <pValue>  (1) 
5.57

>  <Ligand Efficiency>  (1) 
0

>  <Binding Efficiency>  (1) 
0

>  <Surface Efficiency>  (1) 
0

>  <Assay Index>  (1) 
469728

>  <Assay Category>  (1) 


>  <Assay Organism>  (1) 


>  <Target ID>  (1) 
11365

>  <Target Name>  (1) 
Cytochrome P450 2D6

>  <Target Organism>  (1) 
Homo sapiens

>  <Target Description>  (1) 
Target is a single protein chain

>  <Sequence Accession>  (1) 
P10635

>  <Reference>  (1) 
Bioorg Med Chem Lett 20 (7), 2316-2320 (2010)

>  <Pubmed ID>  (1) 
20188547

>  <DOI>  (1) 
10.1016/j.bmcl.2010.01.134

$$$$
