4wnv_ligand_230
     RDKit          2D

 32 34  0  0  1  0  0  0  0  0999 V2000
    0.0000   -0.0000   -0.0000 S   0  0  0  0  0  0  0  0  0  0  0  0
   -0.7606   -1.2835   -0.0000 O   0  0  0  0  0  0  0  0  0  0  0  0
    0.7487    1.3073   -0.0000 O   0  0  0  0  0  0  0  0  0  0  0  0
   -1.3073    0.7606   -0.0000 N   0  0  0  0  0  0  0  0  0  0  0  0
    1.2835   -0.7368   -0.0000 C   0  0  0  0  0  0  0  0  0  0  0  0
   -1.3191    2.2699   -0.0000 C   0  0  0  0  0  0  0  0  0  0  0  0
   -2.6264    3.0305   -0.0000 C   0  0  0  0  0  0  0  0  0  0  0  0
   -2.6383    4.5516   -0.0000 C   0  0  0  0  0  0  0  0  0  0  0  0
   -3.9456    2.2936   -0.0000 C   0  0  0  0  0  0  0  0  0  0  0  0
   -1.3548    5.3122   -0.0000 N   0  0  0  0  0  0  0  0  0  0  0  0
   -3.9456    5.3122   -0.0000 C   0  0  0  0  0  0  0  0  0  0  0  0
   -5.2528    3.0542   -0.0000 C   0  0  0  0  0  0  0  0  0  0  0  0
   -0.0713    4.5754   -0.0000 C   0  0  0  0  0  0  0  0  0  0  0  0
   -5.2528    4.5754   -0.0000 C   0  0  0  0  0  0  0  0  0  0  0  0
    1.2122    5.3360   -0.0000 C   0  0  0  0  0  0  0  0  0  0  0  0
    1.2003    6.8453   -0.0000 O   0  0  0  0  0  0  0  0  0  0  0  0
    2.4957    4.5992   -0.0000 N   0  0  0  0  0  0  0  0  0  0  0  0
    3.7792    5.3598   -0.0000 C   0  0  0  0  0  0  0  0  0  0  0  0
    2.4838    3.1137   -0.0000 C   0  0  0  0  0  0  0  0  0  0  0  0
    3.7673    6.8691   -0.0000 C   0  0  0  0  0  0  0  0  0  0  0  0
    5.0627    4.6229   -0.0000 C   0  0  0  0  0  0  0  0  0  0  0  0
    5.0508    7.6296   -0.0000 C   0  0  0  0  0  0  0  0  0  0  0  0
    2.4600    7.6178   -0.0000 C   0  0  0  0  0  0  0  0  0  0  0  0
    6.3462    5.3835   -0.0000 N   0  0  0  0  0  0  0  0  0  0  0  0
    5.0389    9.1389   -0.0000 C   0  0  0  0  0  0  0  0  0  0  0  0
    2.4363    9.1271   -0.0000 C   0  0  0  0  0  0  0  0  0  0  0  0
    7.7010    4.7893   -0.0000 C   0  0  0  0  0  0  0  0  0  0  0  0
    6.4888    6.8809   -0.0000 C   0  0  0  0  0  0  0  0  0  0  0  0
    3.7198    9.8995   -0.0000 C   0  0  0  0  0  0  0  0  0  0  0  0
    8.6873    5.9183   -0.0000 C   0  0  0  0  0  0  0  0  0  0  0  0
    7.9386    7.2137   -0.0000 C   0  0  0  0  0  0  0  0  0  0  0  0
   10.1729    5.7757   -0.0000 O   0  0  0  0  0  0  0  0  0  0  0  0
  1  2  2  0
  1  3  2  0
  1  4  1  0
  1  5  1  0
  4  6  1  0
  6  7  1  0
  7  8  2  0
  7  9  1  0
  8 10  1  0
  8 11  1  0
  9 12  2  0
 10 13  1  0
 11 14  2  0
 13 15  1  0
 15 16  2  0
 15 17  1  0
 18 17  1  0
 17 19  1  0
 18 20  1  0
 18 21  1  1
 20 22  2  0
 20 23  1  0
 21 24  1  0
 22 25  1  0
 23 26  2  0
 24 27  1  0
 24 28  1  0
 25 29  2  0
 27 30  1  0
 28 31  1  0
 30 32  1  6
 12 14  1  0
 26 29  1  0
 30 31  1  0
M  END
>  <MolRegNo>  (1) 
338017

>  <m>  (1) 
=

>  <Value>  (1) 
1500

>  <Unit>  (1) 
nM

>  <Type>  (1) 
IC50

>  <pValue>  (1) 
5.82

>  <Ligand Efficiency>  (1) 
0

>  <Binding Efficiency>  (1) 
0

>  <Surface Efficiency>  (1) 
0

>  <Assay Index>  (1) 
257094

>  <Assay Category>  (1) 


>  <Assay Organism>  (1) 
Homo sapiens

>  <Target ID>  (1) 
11365

>  <Target Name>  (1) 
Cytochrome P450 2D6

>  <Target Organism>  (1) 
Homo sapiens

>  <Target Description>  (1) 
Target is a single protein chain

>  <Sequence Accession>  (1) 
P10635

>  <Reference>  (1) 
Bioorg Med Chem Lett 16 (3), 645-648 (2006)

>  <Pubmed ID>  (1) 
16263278

>  <DOI>  (1) 
10.1016/j.bmcl.2005.10.034

$$$$
