4wnv_ligand_207
     RDKit          2D

 32 35  0  0  1  0  0  0  0  0999 V2000
    0.0000   -0.0000   -0.0000 S   0  0  0  0  0  0  0  0  0  0  0  0
    0.7388   -1.2869   -0.0000 O   0  0  0  0  0  0  0  0  0  0  0  0
   -0.7626    1.3227   -0.0000 O   0  0  0  0  0  0  0  0  0  0  0  0
   -1.3227   -0.7269   -0.0000 N   0  0  0  0  0  0  0  0  0  0  0  0
    1.2869    0.7626   -0.0000 C   0  0  0  0  0  0  0  0  0  0  0  0
    2.5619    0.0238   -0.0000 C   0  0  0  0  0  0  0  0  0  0  0  0
    1.2750    2.2759   -0.0000 C   0  0  0  0  0  0  0  0  0  0  0  0
    3.8369    0.7745   -0.0000 C   0  0  0  0  0  0  0  0  0  0  0  0
    2.5619    3.0266   -0.0000 C   0  0  0  0  0  0  0  0  0  0  0  0
    3.8369    2.2878   -0.0000 C   0  0  0  0  0  0  0  0  0  0  0  0
    5.1238    0.0357   -0.0000 C   0  0  0  0  0  0  0  0  0  0  0  0
    5.1238    3.0504   -0.0000 O   0  0  0  0  0  0  0  0  0  0  0  0
    6.4226    0.7984   -0.0000 C   0  0  0  0  0  0  0  0  0  0  0  0
    6.4226    2.3117   -0.0000 C   0  0  0  0  0  0  0  0  0  0  0  0
    7.7095    3.0743   -0.0000 C   0  0  0  0  0  0  0  0  0  0  0  0
    7.6976    4.5876   -0.0000 O   0  0  0  0  0  0  0  0  0  0  0  0
    8.9964    2.3355   -0.0000 N   0  0  0  0  0  0  0  0  0  0  0  0
   10.2833    3.0981   -0.0000 C   0  0  0  0  0  0  0  0  0  0  0  0
    8.9845    0.8460   -0.0000 C   0  0  0  0  0  0  0  0  0  0  0  0
   10.2714    4.6114   -0.0000 C   0  0  0  0  0  0  0  0  0  0  0  0
   11.5702    2.3593   -0.0000 C   0  0  0  0  0  0  0  0  0  0  0  0
    8.9607    5.3740   -0.0000 C   0  0  0  0  0  0  0  0  0  0  0  0
   11.5702    5.3740   -0.0000 C   0  0  0  0  0  0  0  0  0  0  0  0
   12.8571    3.1219   -0.0000 N   0  0  0  0  0  0  0  0  0  0  0  0
    8.9488    6.8992   -0.0000 C   0  0  0  0  0  0  0  0  0  0  0  0
   11.5583    6.8992   -0.0000 C   0  0  0  0  0  0  0  0  0  0  0  0
   14.2155    2.5261   -0.0000 C   0  0  0  0  0  0  0  0  0  0  0  0
   13.0001    4.6352   -0.0000 C   0  0  0  0  0  0  0  0  0  0  0  0
   10.2357    7.6619   -0.0000 C   0  0  0  0  0  0  0  0  0  0  0  0
   15.2046    3.6581   -0.0000 C   0  0  0  0  0  0  0  0  0  0  0  0
   14.4539    4.9570   -0.0000 C   0  0  0  0  0  0  0  0  0  0  0  0
   16.6821    3.5152   -0.0000 O   0  0  0  0  0  0  0  0  0  0  0  0
  1  2  2  0
  1  3  2  0
  1  4  1  0
  1  5  1  0
  5  6  2  0
  5  7  1  0
  6  8  1  0
  7  9  2  0
  8 10  2  0
  8 11  1  0
 10 12  1  0
 11 13  1  0
 12 14  1  0
 14 15  1  0
 15 16  2  0
 15 17  1  0
 18 17  1  0
 17 19  1  0
 18 20  1  0
 18 21  1  1
 20 22  2  0
 20 23  1  0
 21 24  1  0
 22 25  1  0
 23 26  2  0
 24 27  1  0
 24 28  1  0
 25 29  2  0
 27 30  1  0
 28 31  1  0
 30 32  1  6
  9 10  1  0
 13 14  1  0
 26 29  1  0
 30 31  1  0
M  END
>  <MolRegNo>  (1) 
332127

>  <m>  (1) 
=

>  <Value>  (1) 
1800

>  <Unit>  (1) 
nM

>  <Type>  (1) 
IC50

>  <pValue>  (1) 
5.75

>  <Ligand Efficiency>  (1) 
0

>  <Binding Efficiency>  (1) 
0

>  <Surface Efficiency>  (1) 
0

>  <Assay Index>  (1) 
253815

>  <Assay Category>  (1) 


>  <Assay Organism>  (1) 
Homo sapiens

>  <Target ID>  (1) 
11365

>  <Target Name>  (1) 
Cytochrome P450 2D6

>  <Target Organism>  (1) 
Homo sapiens

>  <Target Description>  (1) 
Target is a single protein chain

>  <Sequence Accession>  (1) 
P10635

>  <Reference>  (1) 
Bioorg Med Chem Lett 15 (23), 5114-5119 (2005)

>  <Pubmed ID>  (1) 
16203140

>  <DOI>  (1) 
10.1016/j.bmcl.2005.08.094

$$$$
