4wnv_ligand_117
     RDKit          2D

 32 34  0  0  0  0  0  0  0  0999 V2000
    0.0000   -0.0000   -0.0000 O   0  0  0  0  0  0  0  0  0  0  0  0
   -1.3114    0.7630   -0.0000 C   0  0  0  0  0  0  0  0  0  0  0  0
   -1.3471    2.2651   -0.0000 O   0  0  0  0  0  0  0  0  0  0  0  0
   -2.6227    0.0119   -0.0000 C   0  0  0  0  0  0  0  0  0  0  0  0
   -3.9341    0.7749   -0.0000 C   0  0  0  0  0  0  0  0  0  0  0  0
   -3.9460    2.2889   -0.0000 C   0  0  0  0  0  0  0  0  0  0  0  0
   -5.2454    3.0519   -0.0000 C   0  0  0  0  0  0  0  0  0  0  0  0
   -2.6465    3.0519   -0.0000 C   0  0  0  0  0  0  0  0  0  0  0  0
   -5.2573    4.5659   -0.0000 C   0  0  0  0  0  0  0  0  0  0  0  0
   -2.6585    4.5778   -0.0000 C   0  0  0  0  0  0  0  0  0  0  0  0
   -6.5568    5.3289   -0.0000 C   0  0  0  0  0  0  0  0  0  0  0  0
   -3.9817    5.3408   -0.0000 C   0  0  0  0  0  0  0  0  0  0  0  0
   -7.8681    6.0918   -0.0000 N   0  0  0  0  0  0  0  0  0  0  0  0
   -3.9937    6.8429   -0.0000 O   0  0  0  0  0  0  0  0  0  0  0  0
   -2.7181    7.6178   -0.0000 C   0  0  0  0  0  0  0  0  0  0  0  0
   -1.4306    6.8667   -0.0000 C   0  0  0  0  0  0  0  0  0  0  0  0
   -1.4544    5.3765   -0.0000 O   0  0  0  0  0  0  0  0  0  0  0  0
   -0.1431    7.6416   -0.0000 C   0  0  0  0  0  0  0  0  0  0  0  0
    1.1325    6.9025   -0.0000 N   0  0  0  0  0  0  0  0  0  0  0  0
    2.4081    7.6655   -0.0000 C   0  0  0  0  0  0  0  0  0  0  0  0
    3.6956    8.4403   -0.0000 C   0  0  0  0  0  0  0  0  0  0  0  0
    3.6956    6.9263   -0.0000 C   0  0  0  0  0  0  0  0  0  0  0  0
    2.7896    9.1437   -0.0000 C   0  0  0  0  0  0  0  0  0  0  0  0
    4.9831    7.7012   -0.0000 C   0  0  0  0  0  0  0  0  0  0  0  0
    6.1634    8.5953   -0.0000 C   0  0  0  0  0  0  0  0  0  0  0  0
    5.4242    6.2945   -0.0000 C   0  0  0  0  0  0  0  0  0  0  0  0
    7.3674    7.7251   -0.0000 C   0  0  0  0  0  0  0  0  0  0  0  0
    6.3064   10.0974   -0.0000 C   0  0  0  0  0  0  0  0  0  0  0  0
    6.9025    6.3064   -0.0000 N   0  0  0  0  0  0  0  0  0  0  0  0
    8.7265    8.3450   -0.0000 C   0  0  0  0  0  0  0  0  0  0  0  0
    7.6655   10.7173   -0.0000 C   0  0  0  0  0  0  0  0  0  0  0  0
    8.8695    9.8471   -0.0000 C   0  0  0  0  0  0  0  0  0  0  0  0
  1  2  2  0
  2  3  1  0
  2  4  1  0
  4  5  1  0
  5  6  1  0
  6  7  2  0
  6  8  1  0
  7  9  1  0
  8 10  2  0
  9 11  1  0
  9 12  2  0
 11 13  3  0
 12 14  1  0
 14 15  1  0
 15 16  1  0
 16 17  1  0
 16 18  1  0
 18 19  1  0
 19 20  1  0
 20 21  1  0
 20 22  1  0
 20 23  1  0
 21 24  1  0
 24 25  1  0
 24 26  2  0
 25 27  2  0
 25 28  1  0
 26 29  1  0
 27 30  1  0
 28 31  2  0
 30 32  2  0
 10 12  1  0
 27 29  1  0
 31 32  1  0
M  END
>  <MolRegNo>  (1) 
301283

>  <m>  (1) 
=

>  <Value>  (1) 
12000

>  <Unit>  (1) 
nM

>  <Type>  (1) 
IC50

>  <pValue>  (1) 
4.92

>  <Ligand Efficiency>  (1) 
0

>  <Binding Efficiency>  (1) 
0

>  <Surface Efficiency>  (1) 
0

>  <Assay Index>  (1) 
238811

>  <Assay Category>  (1) 


>  <Assay Organism>  (1) 
Homo sapiens

>  <Target ID>  (1) 
11365

>  <Target Name>  (1) 
Cytochrome P450 2D6

>  <Target Organism>  (1) 
Homo sapiens

>  <Target Description>  (1) 
Target is a single protein chain

>  <Sequence Accession>  (1) 
P10635

>  <Reference>  (1) 
Bioorg Med Chem Lett 15 (17), 3816-3820 (2005)

>  <Pubmed ID>  (1) 
15993593

>  <DOI>  (1) 
10.1016/j.bmcl.2005.06.007

$$$$
