4wnv_ligand_700
     RDKit          2D

 30 33  0  0  0  0  0  0  0  0999 V2000
    0.0000   -0.0000   -0.0000 S   0  0  0  0  0  0  0  0  0  0  0  0
    0.7384    1.3100   -0.0000 O   0  0  0  0  0  0  0  0  0  0  0  0
   -0.7503   -1.2981   -0.0000 O   0  0  0  0  0  0  0  0  0  0  0  0
    1.2743   -0.7384   -0.0000 N   0  0  0  0  0  0  0  0  0  0  0  0
   -1.3100    0.7622   -0.0000 C   0  0  0  0  0  0  0  0  0  0  0  0
   -1.3219    2.2865   -0.0000 C   0  0  0  0  0  0  0  0  0  0  0  0
   -2.6319    0.0238   -0.0000 C   0  0  0  0  0  0  0  0  0  0  0  0
   -2.6438    3.0368   -0.0000 C   0  0  0  0  0  0  0  0  0  0  0  0
   -3.9419    0.7860   -0.0000 C   0  0  0  0  0  0  0  0  0  0  0  0
   -2.6676    4.5493   -0.0000 N   0  0  0  0  0  0  0  0  0  0  0  0
   -3.9419    2.2984   -0.0000 C   0  0  0  0  0  0  0  0  0  0  0  0
   -1.3814    5.3233   -0.0000 C   0  0  0  0  0  0  0  0  0  0  0  0
   -0.0953    4.5850   -0.0000 N   0  0  0  0  0  0  0  0  0  0  0  0
   -1.4053    6.8239   -0.0000 N   0  0  0  0  0  0  0  0  0  0  0  0
    1.1909    5.3472   -0.0000 C   0  0  0  0  0  0  0  0  0  0  0  0
   -0.1310    7.5980   -0.0000 C   0  0  0  0  0  0  0  0  0  0  0  0
    2.4771    4.6088   -0.0000 N   0  0  0  0  0  0  0  0  0  0  0  0
    1.1671    6.8596   -0.0000 C   0  0  0  0  0  0  0  0  0  0  0  0
    3.7633    5.3710   -0.0000 C   0  0  0  0  0  0  0  0  0  0  0  0
    2.4771    3.1202   -0.0000 C   0  0  0  0  0  0  0  0  0  0  0  0
    5.0494    4.6326   -0.0000 C   0  0  0  0  0  0  0  0  0  0  0  0
    3.7394    6.8715   -0.0000 C   0  0  0  0  0  0  0  0  0  0  0  0
    6.3356    5.4067   -0.0000 C   0  0  0  0  0  0  0  0  0  0  0  0
    5.0137    7.6456   -0.0000 C   0  0  0  0  0  0  0  0  0  0  0  0
    7.7528    4.9542   -0.0000 N   0  0  0  0  0  0  0  0  0  0  0  0
    6.3237    6.9192   -0.0000 C   0  0  0  0  0  0  0  0  0  0  0  0
    8.6221    6.1808   -0.0000 C   0  0  0  0  0  0  0  0  0  0  0  0
    7.7409    7.3955   -0.0000 N   0  0  0  0  0  0  0  0  0  0  0  0
   10.1108    6.1927   -0.0000 C   0  0  0  0  0  0  0  0  0  0  0  0
    8.1934    8.8365   -0.0000 C   0  0  0  0  0  0  0  0  0  0  0  0
  1  2  2  0
  1  3  2  0
  1  4  1  0
  1  5  1  0
  5  6  2  0
  5  7  1  0
  6  8  1  0
  7  9  2  0
  8 10  1  0
  8 11  2  0
 10 12  1  0
 12 13  2  0
 12 14  1  0
 13 15  1  0
 14 16  2  0
 15 17  1  0
 15 18  2  0
 17 19  1  0
 17 20  1  0
 19 21  2  0
 19 22  1  0
 21 23  1  0
 22 24  2  0
 23 25  1  0
 23 26  2  0
 25 27  2  0
 26 28  1  0
 27 29  1  0
 28 30  1  0
  9 11  1  0
 16 18  1  0
 24 26  1  0
 27 28  1  0
M  END
>  <MolRegNo>  (1) 
489524

>  <m>  (1) 
=

>  <Value>  (1) 
33000

>  <Unit>  (1) 
nM

>  <Type>  (1) 
IC50

>  <pValue>  (1) 
4.48

>  <Ligand Efficiency>  (1) 
0

>  <Binding Efficiency>  (1) 
0

>  <Surface Efficiency>  (1) 
0

>  <Assay Index>  (1) 
338813

>  <Assay Category>  (1) 


>  <Assay Organism>  (1) 
Homo sapiens

>  <Target ID>  (1) 
11365

>  <Target Name>  (1) 
Cytochrome P450 2D6

>  <Target Organism>  (1) 
Homo sapiens

>  <Target Description>  (1) 
Target is a single protein chain

>  <Sequence Accession>  (1) 
P10635

>  <Reference>  (1) 
J Med Chem 51 (15), 4632-4640 (2008)

>  <Pubmed ID>  (1) 
18620382

>  <DOI>  (1) 
10.1021/jm800566m

$$$$
