4wnv_ligand_325
     RDKit          2D

 29 31  0  0  0  0  0  0  0  0999 V2000
    0.0000   -0.0000   -0.0000 F   0  0  0  0  0  0  0  0  0  0  0  0
    1.2932    0.7593   -0.0000 C   0  0  0  0  0  0  0  0  0  0  0  0
    1.2814    2.2780   -0.0000 C   0  0  0  0  0  0  0  0  0  0  0  0
    2.5865    0.0237   -0.0000 C   0  0  0  0  0  0  0  0  0  0  0  0
    2.5627    3.0373   -0.0000 C   0  0  0  0  0  0  0  0  0  0  0  0
    3.8797    0.7831   -0.0000 C   0  0  0  0  0  0  0  0  0  0  0  0
    2.5509    4.5560   -0.0000 F   0  0  0  0  0  0  0  0  0  0  0  0
    3.8560    2.3017   -0.0000 C   0  0  0  0  0  0  0  0  0  0  0  0
    5.1729    0.0475   -0.0000 N   0  0  0  0  0  0  0  0  0  0  0  0
    6.4662    0.8187   -0.0000 C   0  0  0  0  0  0  0  0  0  0  0  0
    6.4424    2.3254   -0.0000 N   0  0  0  0  0  0  0  0  0  0  0  0
    7.7475    0.0831   -0.0000 N   0  0  0  0  0  0  0  0  0  0  0  0
    7.7238    3.0966   -0.0000 C   0  0  0  0  0  0  0  0  0  0  0  0
    9.0289    0.8424   -0.0000 C   0  0  0  0  0  0  0  0  0  0  0  0
    9.0289    2.3610   -0.0000 C   0  0  0  0  0  0  0  0  0  0  0  0
    7.7001    4.6153   -0.0000 C   0  0  0  0  0  0  0  0  0  0  0  0
   10.3103    3.1322   -0.0000 C   0  0  0  0  0  0  0  0  0  0  0  0
    6.1814    4.6034   -0.0000 F   0  0  0  0  0  0  0  0  0  0  0  0
    9.1950    4.6390   -0.0000 F   0  0  0  0  0  0  0  0  0  0  0  0
    7.6763    6.1339   -0.0000 F   0  0  0  0  0  0  0  0  0  0  0  0
   10.2984    4.6509   -0.0000 O   0  0  0  0  0  0  0  0  0  0  0  0
   11.6035    2.3966   -0.0000 N   0  0  0  0  0  0  0  0  0  0  0  0
   12.8848    3.1678   -0.0000 C   0  0  0  0  0  0  0  0  0  0  0  0
   14.1781    2.4322   -0.0000 C   0  0  0  0  0  0  0  0  0  0  0  0
   14.1662    0.9373   -0.0000 C   0  0  0  0  0  0  0  0  0  0  0  0
   15.4476    3.2034   -0.0000 C   0  0  0  0  0  0  0  0  0  0  0  0
   15.4594    0.2017   -0.0000 C   0  0  0  0  0  0  0  0  0  0  0  0
   16.7408    2.4797   -0.0000 C   0  0  0  0  0  0  0  0  0  0  0  0
   16.7527    0.9729   -0.0000 O   0  0  0  0  0  0  0  0  0  0  0  0
  1  2  1  0
  2  3  2  0
  2  4  1  0
  3  5  1  0
  4  6  2  0
  5  7  1  0
  5  8  2  0
  6  9  1  0
  9 10  1  0
 10 11  2  0
 10 12  1  0
 11 13  1  0
 12 14  2  0
 13 15  2  0
 13 16  1  0
 15 17  1  0
 16 18  1  0
 16 19  1  0
 16 20  1  0
 17 21  2  0
 17 22  1  0
 22 23  1  0
 23 24  1  0
 24 25  1  0
 24 26  1  0
 25 27  1  0
 26 28  1  0
 27 29  1  0
  6  8  1  0
 14 15  1  0
 28 29  1  0
M  END
>  <MolRegNo>  (1) 
378626

>  <m>  (1) 
=

>  <Value>  (1) 
45000

>  <Unit>  (1) 
nM

>  <Type>  (1) 
IC50

>  <pValue>  (1) 
4.35

>  <Ligand Efficiency>  (1) 
0

>  <Binding Efficiency>  (1) 
0

>  <Surface Efficiency>  (1) 
0

>  <Assay Index>  (1) 
285319

>  <Assay Category>  (1) 


>  <Assay Organism>  (1) 
Homo sapiens

>  <Target ID>  (1) 
11365

>  <Target Name>  (1) 
Cytochrome P450 2D6

>  <Target Organism>  (1) 
Homo sapiens

>  <Target Description>  (1) 
Target is a single protein chain

>  <Sequence Accession>  (1) 
P10635

>  <Reference>  (1) 
J Med Chem 50 (11), 2597-2600 (2007)

>  <Pubmed ID>  (1) 
17477516

>  <DOI>  (1) 
10.1021/jm061195+

$$$$
