4wnv_ligand_24
     RDKit          2D

 22 25  0  0  0  0  0  0  0  0999 V2000
    0.0000   -0.0000   -0.0000 O   0  0  0  0  0  0  0  0  0  0  0  0
    0.9913   -1.0975   -0.0000 C   0  0  0  0  0  0  0  0  0  0  0  0
    0.5192   -2.5136   -0.0000 N   0  0  0  0  0  0  0  0  0  0  0  0
    2.4428   -0.7789   -0.0000 N   0  0  0  0  0  0  0  0  0  0  0  0
   -0.9205   -2.9621   -0.0000 C   0  0  0  0  0  0  0  0  0  0  0  0
    1.3925   -3.7173   -0.0000 C   0  0  0  0  0  0  0  0  0  0  0  0
    2.8913    0.6609   -0.0000 C   0  0  0  0  0  0  0  0  0  0  0  0
   -0.9323   -4.4490   -0.0000 C   0  0  0  0  0  0  0  0  0  0  0  0
   -2.2304   -2.2068   -0.0000 C   0  0  0  0  0  0  0  0  0  0  0  0
    0.4956   -4.9210   -0.0000 C   0  0  0  0  0  0  0  0  0  0  0  0
    4.3428    0.9795   -0.0000 C   0  0  0  0  0  0  0  0  0  0  0  0
    1.8764    1.7820   -0.0000 C   0  0  0  0  0  0  0  0  0  0  0  0
   -2.2422   -5.1925   -0.0000 C   0  0  0  0  0  0  0  0  0  0  0  0
   -3.5403   -2.9385   -0.0000 C   0  0  0  0  0  0  0  0  0  0  0  0
    4.7912    2.4192   -0.0000 N   0  0  0  0  0  0  0  0  0  0  0  0
    2.3248    3.2217   -0.0000 C   0  0  0  0  0  0  0  0  0  0  0  0
   -3.5521   -4.4254   -0.0000 C   0  0  0  0  0  0  0  0  0  0  0  0
   -4.9801   -2.4664   -0.0000 C   0  0  0  0  0  0  0  0  0  0  0  0
    3.7763    3.5403   -0.0000 C   0  0  0  0  0  0  0  0  0  0  0  0
   -4.9919   -4.8738   -0.0000 N   0  0  0  0  0  0  0  0  0  0  0  0
   -5.8769   -3.6701   -0.0000 C   0  0  0  0  0  0  0  0  0  0  0  0
   -5.4639   -6.2900   -0.0000 C   0  0  0  0  0  0  0  0  0  0  0  0
  1  2  2  0
  2  3  1  0
  2  4  1  0
  3  5  1  0
  3  6  1  0
  4  7  1  0
  5  8  2  0
  5  9  1  0
  6 10  1  0
  7 11  2  0
  7 12  1  0
  8 13  1  0
  9 14  2  0
 11 15  1  0
 12 16  2  0
 13 17  2  0
 14 18  1  0
 15 19  2  0
 17 20  1  0
 18 21  2  0
 20 22  1  0
  8 10  1  0
 14 17  1  0
 16 19  1  0
 20 21  1  0
M  END
>  <MolRegNo>  (1) 
62720

>  <m>  (1) 
=

>  <Value>  (1) 
30000

>  <Unit>  (1) 
nM

>  <Type>  (1) 
IC50

>  <pValue>  (1) 
4.52

>  <Ligand Efficiency>  (1) 
0

>  <Binding Efficiency>  (1) 
0

>  <Surface Efficiency>  (1) 
0

>  <Assay Index>  (1) 
51631

>  <Assay Category>  (1) 


>  <Assay Organism>  (1) 
Homo sapiens

>  <Target ID>  (1) 
11365

>  <Target Name>  (1) 
Cytochrome P450 2D6

>  <Target Organism>  (1) 
Homo sapiens

>  <Target Description>  (1) 
Target is a single protein chain

>  <Sequence Accession>  (1) 
P10635

>  <Reference>  (1) 
J Med Chem 40 (22), 3494-3496 (1997)

>  <Pubmed ID>  (1) 
9357513

>  <DOI>  (1) 
10.1021/jm970424c

$$$$
