4wnv_ligand_1017
     RDKit          2D

 21 23  0  0  0  0  0  0  0  0999 V2000
    0.0000   -0.0000   -0.0000 S   0  0  0  0  0  0  0  0  0  0  0  0
   -1.4536   -0.4528   -0.0000 C   0  0  0  0  0  0  0  0  0  0  0  0
    0.8817   -1.2034   -0.0000 C   0  0  0  0  0  0  0  0  0  0  0  0
   -1.4655   -1.9540   -0.0000 C   0  0  0  0  0  0  0  0  0  0  0  0
   -2.7642    0.2979   -0.0000 C   0  0  0  0  0  0  0  0  0  0  0  0
   -0.0119   -2.4187   -0.0000 C   0  0  0  0  0  0  0  0  0  0  0  0
    2.3711   -1.1796   -0.0000 C   0  0  0  0  0  0  0  0  0  0  0  0
   -2.7762   -2.6928   -0.0000 C   0  0  0  0  0  0  0  0  0  0  0  0
   -4.0749   -0.4408   -0.0000 C   0  0  0  0  0  0  0  0  0  0  0  0
    0.4528   -3.8247   -0.0000 C   0  0  0  0  0  0  0  0  0  0  0  0
    3.1217   -2.4664   -0.0000 C   0  0  0  0  0  0  0  0  0  0  0  0
   -4.0868   -1.9302   -0.0000 C   0  0  0  0  0  0  0  0  0  0  0  0
   -0.5600   -4.9327   -0.0000 C   0  0  0  0  0  0  0  0  0  0  0  0
    1.9064   -4.1106   -0.0000 C   0  0  0  0  0  0  0  0  0  0  0  0
    4.6110   -2.4425   -0.0000 N   0  0  0  0  0  0  0  0  0  0  0  0
   -2.0613   -4.7659   -0.0000 N   0  0  0  0  0  0  0  0  0  0  0  0
   -0.2502   -6.3864   -0.0000 C   0  0  0  0  0  0  0  0  0  0  0  0
    5.3498   -3.7293   -0.0000 C   0  0  0  0  0  0  0  0  0  0  0  0
    5.3379   -1.1319   -0.0000 C   0  0  0  0  0  0  0  0  0  0  0  0
   -2.6808   -6.1242   -0.0000 C   0  0  0  0  0  0  0  0  0  0  0  0
   -1.5608   -7.1370   -0.0000 S   0  0  0  0  0  0  0  0  0  0  0  0
  1  2  1  0
  1  3  1  0
  2  4  2  0
  2  5  1  0
  3  6  2  0
  3  7  1  0
  4  8  1  0
  5  9  2  0
  6 10  1  0
  7 11  1  0
  8 12  2  0
 10 13  1  0
 10 14  1  1
 11 15  1  0
 13 16  1  0
 13 17  2  0
 15 18  1  0
 15 19  1  0
 16 20  2  0
 17 21  1  0
  4  6  1  0
  9 12  1  0
 20 21  1  0
M  END
>  <MolRegNo>  (1) 
620168

>  <m>  (1) 
=

>  <Value>  (1) 
4926000

>  <Unit>  (1) 
nM

>  <Type>  (1) 
IC50

>  <pValue>  (1) 
0

>  <Ligand Efficiency>  (1) 
0

>  <Binding Efficiency>  (1) 
0

>  <Surface Efficiency>  (1) 
0

>  <Assay Index>  (1) 
469728

>  <Assay Category>  (1) 


>  <Assay Organism>  (1) 


>  <Target ID>  (1) 
11365

>  <Target Name>  (1) 
Cytochrome P450 2D6

>  <Target Organism>  (1) 
Homo sapiens

>  <Target Description>  (1) 
Target is a single protein chain

>  <Sequence Accession>  (1) 
P10635

>  <Reference>  (1) 
Bioorg Med Chem Lett 20 (7), 2316-2320 (2010)

>  <Pubmed ID>  (1) 
20188547

>  <DOI>  (1) 
10.1016/j.bmcl.2010.01.134

$$$$
