4wnv_ligand_727
     RDKit          2D

 39 43  0  0  0  0  0  0  0  0999 V2000
    0.0000   -0.0000   -0.0000 F   0  0  0  0  0  0  0  0  0  0  0  0
    1.3020   -0.7406   -0.0000 C   0  0  0  0  0  0  0  0  0  0  0  0
    2.5920    0.0239   -0.0000 C   0  0  0  0  0  0  0  0  0  0  0  0
    1.3020   -2.2456   -0.0000 C   0  0  0  0  0  0  0  0  0  0  0  0
    3.8821   -0.7167   -0.0000 C   0  0  0  0  0  0  0  0  0  0  0  0
    2.5920   -2.9743   -0.0000 C   0  0  0  0  0  0  0  0  0  0  0  0
    3.8701   -2.2098   -0.0000 C   0  0  0  0  0  0  0  0  0  0  0  0
    5.1721   -2.9504   -0.0000 C   0  0  0  0  0  0  0  0  0  0  0  0
    6.4621   -2.1859   -0.0000 C   0  0  0  0  0  0  0  0  0  0  0  0
    7.7522   -2.9265   -0.0000 C   0  0  0  0  0  0  0  0  0  0  0  0
    6.4502   -0.6689   -0.0000 C   0  0  0  0  0  0  0  0  0  0  0  0
    9.0422   -2.1620   -0.0000 N   0  0  0  0  0  0  0  0  0  0  0  0
    7.7402    0.1075   -0.0000 C   0  0  0  0  0  0  0  0  0  0  0  0
    9.0303   -0.6450   -0.0000 C   0  0  0  0  0  0  0  0  0  0  0  0
   10.3323   -2.9026   -0.0000 C   0  0  0  0  0  0  0  0  0  0  0  0
   10.3203   -4.3957   -0.0000 C   0  0  0  0  0  0  0  0  0  0  0  0
    9.0064   -5.1363   -0.0000 O   0  0  0  0  0  0  0  0  0  0  0  0
   11.6342   -5.1243   -0.0000 C   0  0  0  0  0  0  0  0  0  0  0  0
    9.0064   -6.6413   -0.0000 C   0  0  0  0  0  0  0  0  0  0  0  0
   12.9243   -4.3479   -0.0000 N   0  0  0  0  0  0  0  0  0  0  0  0
   11.6342   -6.6174   -0.0000 C   0  0  0  0  0  0  0  0  0  0  0  0
    7.6925   -7.3938   -0.0000 O   0  0  0  0  0  0  0  0  0  0  0  0
   10.3084   -7.3819   -0.0000 N   0  0  0  0  0  0  0  0  0  0  0  0
   14.2263   -5.0765   -0.0000 C   0  0  0  0  0  0  0  0  0  0  0  0
   10.3084   -8.8750   -0.0000 C   0  0  0  0  0  0  0  0  0  0  0  0
   15.5163   -4.3001   -0.0000 O   0  0  0  0  0  0  0  0  0  0  0  0
   14.2263   -6.5696   -0.0000 N   0  0  0  0  0  0  0  0  0  0  0  0
   15.5282   -7.2983   -0.0000 C   0  0  0  0  0  0  0  0  0  0  0  0
   15.5282   -8.7914   -0.0000 C   0  0  0  0  0  0  0  0  0  0  0  0
   16.8183   -6.5219   -0.0000 C   0  0  0  0  0  0  0  0  0  0  0  0
   16.8183   -9.5200   -0.0000 C   0  0  0  0  0  0  0  0  0  0  0  0
   18.1203   -7.2505   -0.0000 C   0  0  0  0  0  0  0  0  0  0  0  0
   16.8183  -11.0131   -0.0000 C   0  0  0  0  0  0  0  0  0  0  0  0
   18.1203   -8.7436   -0.0000 C   0  0  0  0  0  0  0  0  0  0  0  0
   18.0367  -11.8851   -0.0000 N   0  0  0  0  0  0  0  0  0  0  0  0
   15.5880  -11.8970   -0.0000 N   0  0  0  0  0  0  0  0  0  0  0  0
   17.5708  -13.3065   -0.0000 N   0  0  0  0  0  0  0  0  0  0  0  0
   16.0538  -13.3185   -0.0000 N   0  0  0  0  0  0  0  0  0  0  0  0
   14.1426  -11.4312   -0.0000 C   0  0  0  0  0  0  0  0  0  0  0  0
  1  2  1  0
  2  3  2  0
  2  4  1  0
  3  5  1  0
  4  6  2  0
  5  7  2  0
  7  8  1  0
  9  8  1  1
  9 10  1  0
  9 11  1  0
 10 12  1  0
 11 13  1  0
 12 14  1  0
 12 15  1  0
 16 15  1  6
 16 17  1  0
 16 18  1  0
 17 19  1  0
 18 20  1  1
 18 21  1  0
 19 22  2  0
 19 23  1  0
 20 24  1  0
 23 25  1  0
 24 26  2  0
 24 27  1  0
 27 28  1  0
 28 29  2  0
 28 30  1  0
 29 31  1  0
 30 32  2  0
 31 33  1  0
 31 34  2  0
 33 35  2  0
 33 36  1  0
 35 37  1  0
 36 38  1  0
 36 39  1  0
  6  7  1  0
 13 14  1  0
 21 23  1  0
 32 34  1  0
 37 38  2  0
M  END
>  <MolRegNo>  (1) 
473493

>  <m>  (1) 
=

>  <Value>  (1) 
4300

>  <Unit>  (1) 
nM

>  <Type>  (1) 
IC50

>  <pValue>  (1) 
5.37

>  <Ligand Efficiency>  (1) 
0

>  <Binding Efficiency>  (1) 
0

>  <Surface Efficiency>  (1) 
0

>  <Assay Index>  (1) 
409097

>  <Assay Category>  (1) 


>  <Assay Organism>  (1) 


>  <Target ID>  (1) 
11365

>  <Target Name>  (1) 
Cytochrome P450 2D6

>  <Target Organism>  (1) 
Homo sapiens

>  <Target Description>  (1) 
Target is a single protein chain

>  <Sequence Accession>  (1) 
P10635

>  <Reference>  (1) 
Bioorg Med Chem Lett 19 (1), 96-99 (2009)

>  <Pubmed ID>  (1) 
19010676

>  <DOI>  (1) 
10.1016/j.bmcl.2008.11.002

$$$$
