4wnv_ligand_880
     RDKit          2D

 29 31  0  0  0  0  0  0  0  0999 V2000
    0.0000   -0.0000   -0.0000 Cl  0  0  0  0  0  0  0  0  0  0  0  0
    1.2923   -0.7419   -0.0000 C   0  0  0  0  0  0  0  0  0  0  0  0
    2.5727    0.0239   -0.0000 C   0  0  0  0  0  0  0  0  0  0  0  0
    1.2804   -2.2376   -0.0000 C   0  0  0  0  0  0  0  0  0  0  0  0
    2.5487    1.5436   -0.0000 C   0  0  0  0  0  0  0  0  0  0  0  0
    3.8770   -0.7060   -0.0000 C   0  0  0  0  0  0  0  0  0  0  0  0
    2.5727   -2.9795   -0.0000 C   0  0  0  0  0  0  0  0  0  0  0  0
    2.5368    3.0752   -0.0000 N   0  0  0  0  0  0  0  0  0  0  0  0
    5.1693    0.0718   -0.0000 O   0  0  0  0  0  0  0  0  0  0  0  0
    3.8650   -2.2137   -0.0000 C   0  0  0  0  0  0  0  0  0  0  0  0
    6.4736   -0.6581   -0.0000 C   0  0  0  0  0  0  0  0  0  0  0  0
    7.7659    0.1197   -0.0000 C   0  0  0  0  0  0  0  0  0  0  0  0
    7.7419    1.6393   -0.0000 O   0  0  0  0  0  0  0  0  0  0  0  0
    9.0582   -0.6103   -0.0000 C   0  0  0  0  0  0  0  0  0  0  0  0
   10.3505    0.1675   -0.0000 N   0  0  0  0  0  0  0  0  0  0  0  0
   11.6428   -0.5624   -0.0000 C   0  0  0  0  0  0  0  0  0  0  0  0
   12.9351    0.2154   -0.0000 C   0  0  0  0  0  0  0  0  0  0  0  0
   10.8650   -1.8428   -0.0000 C   0  0  0  0  0  0  0  0  0  0  0  0
   12.3728   -1.8428   -0.0000 C   0  0  0  0  0  0  0  0  0  0  0  0
   14.2275   -0.5145   -0.0000 C   0  0  0  0  0  0  0  0  0  0  0  0
   15.5078    0.2633   -0.0000 C   0  0  0  0  0  0  0  0  0  0  0  0
   14.2155   -2.0103   -0.0000 C   0  0  0  0  0  0  0  0  0  0  0  0
   16.8001   -0.4667   -0.0000 C   0  0  0  0  0  0  0  0  0  0  0  0
   15.5078   -2.7402   -0.0000 C   0  0  0  0  0  0  0  0  0  0  0  0
   16.8001   -1.9744   -0.0000 C   0  0  0  0  0  0  0  0  0  0  0  0
   18.0925    0.3111   -0.0000 C   0  0  0  0  0  0  0  0  0  0  0  0
   18.1044   -2.7163   -0.0000 C   0  0  0  0  0  0  0  0  0  0  0  0
   19.3967   -0.4188   -0.0000 C   0  0  0  0  0  0  0  0  0  0  0  0
   19.3967   -1.9385   -0.0000 C   0  0  0  0  0  0  0  0  0  0  0  0
  1  2  1  0
  2  3  2  0
  2  4  1  0
  3  5  1  0
  3  6  1  0
  4  7  2  0
  5  8  3  0
  6  9  1  0
  6 10  2  0
  9 11  1  0
 11 12  1  0
 12 13  1  1
 12 14  1  0
 14 15  1  0
 15 16  1  0
 16 17  1  0
 16 18  1  0
 16 19  1  0
 17 20  1  0
 20 21  2  0
 20 22  1  0
 21 23  1  0
 22 24  2  0
 23 25  2  0
 23 26  1  0
 25 27  1  0
 26 28  2  0
 27 29  2  0
  7 10  1  0
 24 25  1  0
 28 29  1  0
M  END
>  <MolRegNo>  (1) 
300499

>  <m>  (1) 
=

>  <Value>  (1) 
0.045

>  <Unit>  (1) 
nM

>  <Type>  (1) 
IC50

>  <pValue>  (1) 
10.35

>  <Ligand Efficiency>  (1) 
0

>  <Binding Efficiency>  (1) 
0

>  <Surface Efficiency>  (1) 
0

>  <Assay Index>  (1) 
436972

>  <Assay Category>  (1) 


>  <Assay Organism>  (1) 


>  <Target ID>  (1) 
11365

>  <Target Name>  (1) 
Cytochrome P450 2D6

>  <Target Organism>  (1) 
Homo sapiens

>  <Target Description>  (1) 
Target is a single protein chain

>  <Sequence Accession>  (1) 
P10635

>  <Reference>  (1) 
J Med Chem 52 (21), 6599-6605 (2009)

>  <Pubmed ID>  (1) 
19821575

>  <DOI>  (1) 
10.1021/jm900563e

$$$$
