4wnv_ligand_614
     RDKit          2D

 23 25  0  0  0  0  0  0  0  0999 V2000
    0.0000   -0.0000   -0.0000 Cl  0  0  0  0  0  0  0  0  0  0  0  0
    1.2870    0.7627   -0.0000 C   0  0  0  0  0  0  0  0  0  0  0  0
    2.5740    0.0238   -0.0000 C   0  0  0  0  0  0  0  0  0  0  0  0
    1.2751    2.2880   -0.0000 C   0  0  0  0  0  0  0  0  0  0  0  0
    3.8610    0.7984   -0.0000 C   0  0  0  0  0  0  0  0  0  0  0  0
    2.5621    3.0507   -0.0000 C   0  0  0  0  0  0  0  0  0  0  0  0
    5.1480    0.0596   -0.0000 N   0  0  0  0  0  0  0  0  0  0  0  0
    3.8491    2.3238   -0.0000 C   0  0  0  0  0  0  0  0  0  0  0  0
    6.4350    0.8223   -0.0000 C   0  0  0  0  0  0  0  0  0  0  0  0
    5.1361    3.0864   -0.0000 C   0  0  0  0  0  0  0  0  0  0  0  0
    6.4112    2.3476   -0.0000 C   0  0  0  0  0  0  0  0  0  0  0  0
    5.1123    4.5998   -0.0000 N   0  0  0  0  0  0  0  0  0  0  0  0
    6.3993    5.3744   -0.0000 C   0  0  0  0  0  0  0  0  0  0  0  0
    7.6863    4.6475   -0.0000 C   0  0  0  0  0  0  0  0  0  0  0  0
    6.3754    6.8878   -0.0000 C   0  0  0  0  0  0  0  0  0  0  0  0
    8.9733    5.4221   -0.0000 C   0  0  0  0  0  0  0  0  0  0  0  0
    7.6505    7.6505   -0.0000 C   0  0  0  0  0  0  0  0  0  0  0  0
   10.2722    4.6952   -0.0000 O   0  0  0  0  0  0  0  0  0  0  0  0
    8.9494    6.9474   -0.0000 C   0  0  0  0  0  0  0  0  0  0  0  0
   10.2364    7.7220   -0.0000 C   0  0  0  0  0  0  0  0  0  0  0  0
   10.2126    9.2354   -0.0000 N   0  0  0  0  0  0  0  0  0  0  0  0
   11.4996   10.0100   -0.0000 C   0  0  0  0  0  0  0  0  0  0  0  0
   11.4758   11.5234   -0.0000 C   0  0  0  0  0  0  0  0  0  0  0  0
  1  2  1  0
  2  3  2  0
  2  4  1  0
  3  5  1  0
  4  6  2  0
  5  7  2  0
  5  8  1  0
  7  9  1  0
  8 10  2  0
  9 11  2  0
 10 12  1  0
 12 13  1  0
 13 14  2  0
 13 15  1  0
 14 16  1  0
 15 17  2  0
 16 18  1  0
 16 19  2  0
 19 20  1  0
 20 21  1  0
 21 22  1  0
 22 23  1  0
  6  8  1  0
 10 11  1  0
 17 19  1  0
M  END
>  <MolRegNo>  (1) 
243644

>  <m>  (1) 
=

>  <Value>  (1) 
3400

>  <Unit>  (1) 
nM

>  <Type>  (1) 
IC50

>  <pValue>  (1) 
5.47

>  <Ligand Efficiency>  (1) 
0

>  <Binding Efficiency>  (1) 
0

>  <Surface Efficiency>  (1) 
0

>  <Assay Index>  (1) 
343724

>  <Assay Category>  (1) 


>  <Assay Organism>  (1) 
Homo sapiens

>  <Target ID>  (1) 
11365

>  <Target Name>  (1) 
Cytochrome P450 2D6

>  <Target Organism>  (1) 
Homo sapiens

>  <Target Description>  (1) 
Target is a single protein chain

>  <Sequence Accession>  (1) 
P10635

>  <Reference>  (1) 
J Med Chem 52 (5), 1408-1415 (2009)

>  <Pubmed ID>  (1) 
19222165

>  <DOI>  (1) 
10.1021/jm8012618

$$$$
