4wnv_ligand_291
     RDKit          2D

 22 23  0  0  0  0  0  0  0  0999 V2000
    0.0000   -0.0000   -0.0000 Cl  0  0  0  0  0  0  0  0  0  0  0  0
   -0.0119   -1.2046   -0.0000 C   0  0  0  0  0  0  0  0  0  0  0  0
   -1.3358   -1.9441   -0.0000 C   0  0  0  0  0  0  0  0  0  0  0  0
    1.2881   -1.9560   -0.0000 C   0  0  0  0  0  0  0  0  0  0  0  0
   -1.3477   -3.4469   -0.0000 C   0  0  0  0  0  0  0  0  0  0  0  0
   -2.6597   -1.1808   -0.0000 C   0  0  0  0  0  0  0  0  0  0  0  0
    1.2762   -3.4588   -0.0000 C   0  0  0  0  0  0  0  0  0  0  0  0
   -0.0477   -4.1982   -0.0000 C   0  0  0  0  0  0  0  0  0  0  0  0
   -3.9836   -1.9321   -0.0000 C   0  0  0  0  0  0  0  0  0  0  0  0
   -3.9955   -3.4349   -0.0000 N   0  0  0  0  0  0  0  0  0  0  0  0
   -5.3074   -1.1688   -0.0000 C   0  0  0  0  0  0  0  0  0  0  0  0
   -2.6955   -4.1744   -0.0000 C   0  0  0  0  0  0  0  0  0  0  0  0
   -5.3194   -4.1744   -0.0000 C   0  0  0  0  0  0  0  0  0  0  0  0
   -6.6313   -1.9083   -0.0000 C   0  0  0  0  0  0  0  0  0  0  0  0
   -5.3194    0.3578   -0.0000 C   0  0  0  0  0  0  0  0  0  0  0  0
   -2.7074   -5.6772   -0.0000 C   0  0  0  0  0  0  0  0  0  0  0  0
   -5.3313   -5.6772   -0.0000 C   0  0  0  0  0  0  0  0  0  0  0  0
   -7.9552   -1.1330   -0.0000 C   0  0  0  0  0  0  0  0  0  0  0  0
   -6.6432    1.1211   -0.0000 C   0  0  0  0  0  0  0  0  0  0  0  0
   -4.0313   -6.4166   -0.0000 N   0  0  0  0  0  0  0  0  0  0  0  0
   -7.9671    0.3936   -0.0000 C   0  0  0  0  0  0  0  0  0  0  0  0
    3.7212   -2.6716   -0.0000 Cl  0  0  0  0  0  0  0  0  0  0  0  0
  1  2  1  0
  2  3  2  0
  2  4  1  0
  3  5  1  0
  3  6  1  0
  4  7  2  0
  5  8  2  0
  6  9  1  0
  9 10  1  0
  9 11  1  0
 10 12  1  0
 10 13  1  0
 11 14  2  0
 11 15  1  0
 12 16  1  0
 13 17  1  0
 14 18  1  0
 15 19  2  0
 16 20  1  0
 18 21  2  0
  7  8  1  0
 17 20  1  0
 19 21  1  0
M  END
>  <MolRegNo>  (1) 
549440

>  <m>  (1) 
=

>  <Value>  (1) 
500

>  <Unit>  (1) 
nM

>  <Type>  (1) 
IC50

>  <pValue>  (1) 
6.3

>  <Ligand Efficiency>  (1) 
0

>  <Binding Efficiency>  (1) 
0

>  <Surface Efficiency>  (1) 
0

>  <Assay Index>  (1) 
265641

>  <Assay Category>  (1) 


>  <Assay Organism>  (1) 
Homo sapiens

>  <Target ID>  (1) 
11365

>  <Target Name>  (1) 
Cytochrome P450 2D6

>  <Target Organism>  (1) 
Homo sapiens

>  <Target Description>  (1) 
Target is a single protein chain

>  <Sequence Accession>  (1) 
P10635

>  <Reference>  (1) 
Bioorg Med Chem Lett 16 (16), 4349-4353 (2006)

>  <Pubmed ID>  (1) 
16750363

>  <DOI>  (1) 
10.1016/j.bmcl.2006.05.049

$$$$
