4wnv_ligand_956
     RDKit          2D

 28 31  0  0  0  0  0  0  0  0999 V2000
    0.0000   -0.0000   -0.0000 O   0  0  0  0  0  0  0  0  0  0  0  0
    1.2893    0.7640   -0.0000 C   0  0  0  0  0  0  0  0  0  0  0  0
    2.5786    0.0358   -0.0000 N   0  0  0  0  0  0  0  0  0  0  0  0
    1.2773    2.2921   -0.0000 C   0  0  0  0  0  0  0  0  0  0  0  0
    3.8559    0.7998   -0.0000 C   0  0  0  0  0  0  0  0  0  0  0  0
    2.5666    3.0561   -0.0000 C   0  0  0  0  0  0  0  0  0  0  0  0
    5.1452    0.0597   -0.0000 C   0  0  0  0  0  0  0  0  0  0  0  0
    3.8440    2.3159   -0.0000 C   0  0  0  0  0  0  0  0  0  0  0  0
    5.1333   -1.4445   -0.0000 N   0  0  0  0  0  0  0  0  0  0  0  0
    6.4345    0.8237   -0.0000 C   0  0  0  0  0  0  0  0  0  0  0  0
    6.4226   -2.1846   -0.0000 C   0  0  0  0  0  0  0  0  0  0  0  0
    7.7238    0.0836   -0.0000 C   0  0  0  0  0  0  0  0  0  0  0  0
    6.4106   -3.6769   -0.0000 N   0  0  0  0  0  0  0  0  0  0  0  0
    7.7118   -1.4206   -0.0000 C   0  0  0  0  0  0  0  0  0  0  0  0
    9.1563    0.5730   -0.0000 C   0  0  0  0  0  0  0  0  0  0  0  0
    5.0975   -4.4170   -0.0000 C   0  0  0  0  0  0  0  0  0  0  0  0
    9.1444   -1.8742   -0.0000 N   0  0  0  0  0  0  0  0  0  0  0  0
   10.0397   -0.6327   -0.0000 C   0  0  0  0  0  0  0  0  0  0  0  0
    9.6100    2.0175   -0.0000 C   0  0  0  0  0  0  0  0  0  0  0  0
    5.0855   -5.9092   -0.0000 C   0  0  0  0  0  0  0  0  0  0  0  0
   11.5319   -0.6088   -0.0000 C   0  0  0  0  0  0  0  0  0  0  0  0
    6.3748   -6.6374   -0.0000 C   0  0  0  0  0  0  0  0  0  0  0  0
    3.7724   -6.6374   -0.0000 C   0  0  0  0  0  0  0  0  0  0  0  0
    6.3748   -8.1297   -0.0000 C   0  0  0  0  0  0  0  0  0  0  0  0
    7.6641   -5.8615   -0.0000 C   0  0  0  0  0  0  0  0  0  0  0  0
    3.7604   -8.1297   -0.0000 C   0  0  0  0  0  0  0  0  0  0  0  0
    2.4592   -5.8734   -0.0000 C   0  0  0  0  0  0  0  0  0  0  0  0
    5.0497   -8.8817   -0.0000 C   0  0  0  0  0  0  0  0  0  0  0  0
  1  2  2  0
  2  3  1  0
  2  4  1  0
  3  5  1  0
  4  6  2  0
  5  7  1  0
  5  8  2  0
  7  9  2  0
  7 10  1  0
  9 11  1  0
 10 12  2  0
 11 13  1  0
 11 14  2  0
 12 15  1  0
 13 16  1  0
 14 17  1  0
 15 18  2  0
 15 19  1  0
 16 20  1  0
 18 21  1  0
 20 22  2  0
 20 23  1  0
 22 24  1  0
 22 25  1  0
 23 26  2  0
 23 27  1  0
 24 28  2  0
  6  8  1  0
 12 14  1  0
 17 18  1  0
 26 28  1  0
M  END
>  <MolRegNo>  (1) 
611678

>  <m>  (1) 
=

>  <Value>  (1) 
60000

>  <Unit>  (1) 
nM

>  <Type>  (1) 
IC50

>  <pValue>  (1) 
4.22

>  <Ligand Efficiency>  (1) 
0

>  <Binding Efficiency>  (1) 
0

>  <Surface Efficiency>  (1) 
0

>  <Assay Index>  (1) 
464697

>  <Assay Category>  (1) 


>  <Assay Organism>  (1) 


>  <Target ID>  (1) 
11365

>  <Target Name>  (1) 
Cytochrome P450 2D6

>  <Target Organism>  (1) 
Homo sapiens

>  <Target Description>  (1) 
Target is a single protein chain

>  <Sequence Accession>  (1) 
P10635

>  <Reference>  (1) 
Bioorg Med Chem Lett 19 (23), 6813-6817 (2009)

>  <Pubmed ID>  (1) 
19846298

>  <DOI>  (1) 
10.1016/j.bmcl.2009.07.002

$$$$
