4wnv_ligand_514
     RDKit          2D

 39 42  0  0  1  0  0  0  0  0999 V2000
    0.0000   -0.0000   -0.0000 F   0  0  0  0  0  0  0  0  0  0  0  0
    1.4937   -0.0000   -0.0000 C   0  0  0  0  0  0  0  0  0  0  0  0
    2.2287   -1.2922   -0.0000 C   0  0  0  0  0  0  0  0  0  0  0  0
    2.2405    1.3040   -0.0000 C   0  0  0  0  0  0  0  0  0  0  0  0
    3.7223   -1.2922   -0.0000 C   0  0  0  0  0  0  0  0  0  0  0  0
    3.7223    1.3159   -0.0000 C   0  0  0  0  0  0  0  0  0  0  0  0
    4.4692    0.0237   -0.0000 C   0  0  0  0  0  0  0  0  0  0  0  0
    5.9629    0.0356   -0.0000 C   0  0  0  0  0  0  0  0  0  0  0  0
    6.7097    1.3514   -0.0000 C   0  0  0  0  0  0  0  0  0  0  0  0
    8.2034    1.3633   -0.0000 C   0  0  0  0  0  0  0  0  0  0  0  0
    5.9392    2.6673   -0.0000 C   0  0  0  0  0  0  0  0  0  0  0  0
    8.9502    2.6673   -0.0000 N   0  0  0  0  0  0  0  0  0  0  0  0
    6.6860    3.9831   -0.0000 C   0  0  0  0  0  0  0  0  0  0  0  0
    8.1915    3.9831   -0.0000 C   0  0  0  0  0  0  0  0  0  0  0  0
   10.4439    2.6673   -0.0000 C   0  0  0  0  0  0  0  0  0  0  0  0
   11.1789    1.3751   -0.0000 C   0  0  0  0  0  0  0  0  0  0  0  0
   12.6726    1.3751   -0.0000 C   0  0  0  0  0  0  0  0  0  0  0  0
   13.4194    2.6791   -0.0000 N   0  0  0  0  0  0  0  0  0  0  0  0
   14.9131    2.6791   -0.0000 C   0  0  0  0  0  0  0  0  0  0  0  0
   15.6481    1.3870   -0.0000 O   0  0  0  0  0  0  0  0  0  0  0  0
   15.6599    3.9831   -0.0000 N   0  0  0  0  0  0  0  0  0  0  0  0
   17.1536    3.9831   -0.0000 C   0  0  0  0  0  0  0  0  0  0  0  0
   17.8767    2.6910   -0.0000 C   0  0  0  0  0  0  0  0  0  0  0  0
   17.8886    5.2990   -0.0000 C   0  0  0  0  0  0  0  0  0  0  0  0
   19.3704    2.6910   -0.0000 C   0  0  0  0  0  0  0  0  0  0  0  0
   19.3823    5.3109   -0.0000 C   0  0  0  0  0  0  0  0  0  0  0  0
   20.1172    1.3988   -0.0000 C   0  0  0  0  0  0  0  0  0  0  0  0
   20.1172    4.0069   -0.0000 C   0  0  0  0  0  0  0  0  0  0  0  0
   20.1291    6.6267   -0.0000 C   0  0  0  0  0  0  0  0  0  0  0  0
   21.5991    1.2447   -0.0000 N   0  0  0  0  0  0  0  0  0  0  0  0
   19.4890    0.0356   -0.0000 N   0  0  0  0  0  0  0  0  0  0  0  0
   20.8641    7.9544   -0.0000 C   0  0  0  0  0  0  0  0  0  0  0  0
   21.4213    5.8917   -0.0000 C   0  0  0  0  0  0  0  0  0  0  0  0
   18.8132    7.3854   -0.0000 C   0  0  0  0  0  0  0  0  0  0  0  0
   21.8954   -0.2134   -0.0000 N   0  0  0  0  0  0  0  0  0  0  0  0
   20.5914   -0.9602   -0.0000 N   0  0  0  0  0  0  0  0  0  0  0  0
   18.0071   -0.2608   -0.0000 C   0  0  0  0  0  0  0  0  0  0  0  0
   20.0817    9.2703   -0.0000 O   0  0  0  0  0  0  0  0  0  0  0  0
   22.3578    7.9900   -0.0000 O   0  0  0  0  0  0  0  0  0  0  0  0
  1  2  1  0
  2  3  2  0
  2  4  1  0
  3  5  1  0
  4  6  2  0
  5  7  2  0
  7  8  1  0
  9  8  1  6
  9 10  1  0
  9 11  1  0
 10 12  1  0
 11 13  1  0
 12 14  1  0
 12 15  1  0
 15 16  1  0
 16 17  1  0
 17 18  1  0
 18 19  1  0
 19 20  2  0
 19 21  1  0
 21 22  1  0
 22 23  2  0
 22 24  1  0
 23 25  1  0
 24 26  2  0
 25 27  1  0
 25 28  2  0
 26 29  1  0
 27 30  2  0
 27 31  1  0
 29 32  1  0
 29 33  1  0
 29 34  1  0
 30 35  1  0
 31 36  1  0
 31 37  1  0
 32 38  2  0
 32 39  1  0
  6  7  1  0
 13 14  1  0
 26 28  1  0
 35 36  2  0
M  END
>  <MolRegNo>  (1) 
437713

>  <m>  (1) 
=

>  <Value>  (1) 
22000

>  <Unit>  (1) 
nM

>  <Type>  (1) 
IC50

>  <pValue>  (1) 
4.66

>  <Ligand Efficiency>  (1) 
0

>  <Binding Efficiency>  (1) 
0

>  <Surface Efficiency>  (1) 
0

>  <Assay Index>  (1) 
314783

>  <Assay Category>  (1) 


>  <Assay Organism>  (1) 


>  <Target ID>  (1) 
11365

>  <Target Name>  (1) 
Cytochrome P450 2D6

>  <Target Organism>  (1) 
Homo sapiens

>  <Target Description>  (1) 
Target is a single protein chain

>  <Sequence Accession>  (1) 
P10635

>  <Reference>  (1) 
Bioorg Med Chem Lett 18 (2), 576-585 (2008)

>  <Pubmed ID>  (1) 
18096386

>  <DOI>  (1) 
10.1016/j.bmcl.2007.11.067

$$$$
