4wnv_ligand_119
     RDKit          2D

 22 23  0  0  0  0  0  0  0  0999 V2000
    0.0000   -0.0000   -0.0000 O   0  0  0  0  0  0  0  0  0  0  0  0
    1.2829    0.7721   -0.0000 C   0  0  0  0  0  0  0  0  0  0  0  0
   -1.3067    0.7721   -0.0000 C   0  0  0  0  0  0  0  0  0  0  0  0
    1.2710    2.2926   -0.0000 C   0  0  0  0  0  0  0  0  0  0  0  0
    2.5658    0.0238   -0.0000 C   0  0  0  0  0  0  0  0  0  0  0  0
   -2.6133    0.0238   -0.0000 C   0  0  0  0  0  0  0  0  0  0  0  0
    2.5539    3.0410   -0.0000 C   0  0  0  0  0  0  0  0  0  0  0  0
    3.8487    0.7959   -0.0000 C   0  0  0  0  0  0  0  0  0  0  0  0
   -2.6252   -1.4611   -0.0000 O   0  0  0  0  0  0  0  0  0  0  0  0
   -3.9200    0.7959   -0.0000 C   0  0  0  0  0  0  0  0  0  0  0  0
    3.8368    2.3164   -0.0000 C   0  0  0  0  0  0  0  0  0  0  0  0
   -5.2266    0.0475   -0.0000 N   0  0  0  0  0  0  0  0  0  0  0  0
    5.1197    3.0766   -0.0000 C   0  0  0  0  0  0  0  0  0  0  0  0
   -6.5333    0.8196   -0.0000 C   0  0  0  0  0  0  0  0  0  0  0  0
    6.4026    2.3401   -0.0000 C   0  0  0  0  0  0  0  0  0  0  0  0
   -7.8518    0.0950   -0.0000 C   0  0  0  0  0  0  0  0  0  0  0  0
   -6.5452    2.3282   -0.0000 C   0  0  0  0  0  0  0  0  0  0  0  0
    7.6855    3.1241   -0.0000 O   0  0  0  0  0  0  0  0  0  0  0  0
    8.9922    2.3757   -0.0000 C   0  0  0  0  0  0  0  0  0  0  0  0
   10.2751    3.1479   -0.0000 C   0  0  0  0  0  0  0  0  0  0  0  0
   11.7599    3.1597   -0.0000 C   0  0  0  0  0  0  0  0  0  0  0  0
   10.9997    4.4545   -0.0000 C   0  0  0  0  0  0  0  0  0  0  0  0
  1  2  1  0
  1  3  1  0
  2  4  2  0
  2  5  1  0
  3  6  1  0
  4  7  1  0
  5  8  2  0
  6  9  1  0
  6 10  1  0
  7 11  2  0
 10 12  1  0
 11 13  1  0
 12 14  1  0
 13 15  1  0
 14 16  1  0
 14 17  1  0
 15 18  1  0
 18 19  1  0
 19 20  1  0
 20 21  1  0
 20 22  1  0
  8 11  1  0
 21 22  1  0
M  END
>  <MolRegNo>  (1) 
1354

>  <m>  (1) 
=

>  <Value>  (1) 
66000

>  <Unit>  (1) 
nM

>  <Type>  (1) 
IC50

>  <pValue>  (1) 
4.18

>  <Ligand Efficiency>  (1) 
0

>  <Binding Efficiency>  (1) 
0

>  <Surface Efficiency>  (1) 
0

>  <Assay Index>  (1) 
238811

>  <Assay Category>  (1) 


>  <Assay Organism>  (1) 
Homo sapiens

>  <Target ID>  (1) 
11365

>  <Target Name>  (1) 
Cytochrome P450 2D6

>  <Target Organism>  (1) 
Homo sapiens

>  <Target Description>  (1) 
Target is a single protein chain

>  <Sequence Accession>  (1) 
P10635

>  <Reference>  (1) 
Bioorg Med Chem Lett 15 (17), 3816-3820 (2005)

>  <Pubmed ID>  (1) 
15993593

>  <DOI>  (1) 
10.1016/j.bmcl.2005.06.007

$$$$
