4wnv_ligand_846
     RDKit          2D

 28 29  0  0  0  0  0  0  0  0999 V2000
    0.0000   -0.0000   -0.0000 F   0  0  0  0  0  0  0  0  0  0  0  0
   -1.1159    0.6520   -0.0000 C   0  0  0  0  0  0  0  0  0  0  0  0
   -1.1285    2.2570   -0.0000 C   0  0  0  0  0  0  0  0  0  0  0  0
   -2.5077   -0.1254   -0.0000 C   0  0  0  0  0  0  0  0  0  0  0  0
   -0.0376    2.9090   -0.0000 F   0  0  0  0  0  0  0  0  0  0  0  0
   -2.5203    3.0594   -0.0000 C   0  0  0  0  0  0  0  0  0  0  0  0
   -3.8995    0.6771   -0.0000 C   0  0  0  0  0  0  0  0  0  0  0  0
   -3.9121    2.2820   -0.0000 C   0  0  0  0  0  0  0  0  0  0  0  0
   -5.0155    0.0502   -0.0000 F   0  0  0  0  0  0  0  0  0  0  0  0
   -5.3039    3.0970   -0.0000 C   0  0  0  0  0  0  0  0  0  0  0  0
   -5.3164    4.7020   -0.0000 C   0  0  0  0  0  0  0  0  0  0  0  0
   -4.2255    5.3540   -0.0000 N   0  0  0  0  0  0  0  0  0  0  0  0
   -6.7082    5.5170   -0.0000 C   0  0  0  0  0  0  0  0  0  0  0  0
   -6.7207    7.1220   -0.0000 C   0  0  0  0  0  0  0  0  0  0  0  0
   -5.6299    7.7740   -0.0000 O   0  0  0  0  0  0  0  0  0  0  0  0
   -8.1125    7.9370   -0.0000 N   0  0  0  0  0  0  0  0  0  0  0  0
   -8.2755    9.5168   -0.0000 C   0  0  0  0  0  0  0  0  0  0  0  0
   -9.5545    7.2850   -0.0000 C   0  0  0  0  0  0  0  0  0  0  0  0
   -9.8428    9.8554   -0.0000 C   0  0  0  0  0  0  0  0  0  0  0  0
   -7.0969   10.5826   -0.0000 C   0  0  0  0  0  0  0  0  0  0  0  0
  -10.6328    8.4761   -0.0000 C   0  0  0  0  0  0  0  0  0  0  0  0
   -7.4354   12.1500   -0.0000 N   0  0  0  0  0  0  0  0  0  0  0  0
   -6.2568   13.2157   -0.0000 C   0  0  0  0  0  0  0  0  0  0  0  0
   -5.0656   12.8270   -0.0000 O   0  0  0  0  0  0  0  0  0  0  0  0
   -6.5953   14.7831   -0.0000 C   0  0  0  0  0  0  0  0  0  0  0  0
   -5.6549   15.6482   -0.0000 F   0  0  0  0  0  0  0  0  0  0  0  0
   -6.8712   16.0369   -0.0000 F   0  0  0  0  0  0  0  0  0  0  0  0
   -7.8116   15.1969   -0.0000 C   0  0  0  0  0  0  0  0  0  0  0  0
  1  2  1  0
  2  3  2  0
  2  4  1  0
  3  5  1  0
  3  6  1  0
  4  7  2  0
  6  8  2  0
  7  9  1  0
  8 10  1  0
 10 11  1  0
 11 12  1  1
 11 13  1  0
 13 14  1  0
 14 15  2  0
 14 16  1  0
 16 17  1  0
 16 18  1  0
 17 19  1  0
 17 20  1  6
 18 21  1  0
 20 22  1  0
 22 23  1  0
 23 24  2  0
 23 25  1  0
 25 26  1  0
 25 27  1  0
 25 28  1  0
  7  8  1  0
 19 21  1  0
M  END
>  <MolRegNo>  (1) 
566012

>  <m>  (1) 
=

>  <Value>  (1) 
3900

>  <Unit>  (1) 
nM

>  <Type>  (1) 
IC50

>  <pValue>  (1) 
5.41

>  <Ligand Efficiency>  (1) 
0

>  <Binding Efficiency>  (1) 
0

>  <Surface Efficiency>  (1) 
0

>  <Assay Index>  (1) 
428036

>  <Assay Category>  (1) 


>  <Assay Organism>  (1) 
Homo sapiens

>  <Target ID>  (1) 
11365

>  <Target Name>  (1) 
Cytochrome P450 2D6

>  <Target Organism>  (1) 
Homo sapiens

>  <Target Description>  (1) 
Target is a single protein chain

>  <Sequence Accession>  (1) 
P10635

>  <Reference>  (1) 
Bioorg Med Chem Lett 19 (16), 4818-4823 (2009)

>  <Pubmed ID>  (1) 
19576767

>  <DOI>  (1) 
10.1016/j.bmcl.2009.06.036

$$$$
