4wnv_ligand_376
     RDKit          2D

 36 39  0  0  0  0  0  0  0  0999 V2000
    0.0000   -0.0000   -0.0000 F   0  0  0  0  0  0  0  0  0  0  0  0
   -0.7571    1.3013   -0.0000 C   0  0  0  0  0  0  0  0  0  0  0  0
   -0.0237    2.6144   -0.0000 C   0  0  0  0  0  0  0  0  0  0  0  0
   -2.2595    1.3131   -0.0000 C   0  0  0  0  0  0  0  0  0  0  0  0
   -0.7926    3.9156   -0.0000 C   0  0  0  0  0  0  0  0  0  0  0  0
   -3.0166    2.6144   -0.0000 C   0  0  0  0  0  0  0  0  0  0  0  0
   -0.0710    5.2287   -0.0000 F   0  0  0  0  0  0  0  0  0  0  0  0
   -2.2831    3.9156   -0.0000 C   0  0  0  0  0  0  0  0  0  0  0  0
   -4.5189    2.6262   -0.0000 C   0  0  0  0  0  0  0  0  0  0  0  0
   -5.8320    1.8927   -0.0000 O   0  0  0  0  0  0  0  0  0  0  0  0
   -4.5308    4.1404   -0.0000 C   0  0  0  0  0  0  0  0  0  0  0  0
   -4.5426    1.1475   -0.0000 C   0  0  0  0  0  0  0  0  0  0  0  0
   -7.1333    2.6498   -0.0000 C   0  0  0  0  0  0  0  0  0  0  0  0
   -3.2532    4.8975   -0.0000 O   0  0  0  0  0  0  0  0  0  0  0  0
   -5.8557    4.9093   -0.0000 N   0  0  0  0  0  0  0  0  0  0  0  0
   -7.1451    4.1640   -0.0000 C   0  0  0  0  0  0  0  0  0  0  0  0
   -8.4346    1.9164   -0.0000 C   0  0  0  0  0  0  0  0  0  0  0  0
   -5.8675    6.4117   -0.0000 C   0  0  0  0  0  0  0  0  0  0  0  0
   -8.4582    4.9093   -0.0000 C   0  0  0  0  0  0  0  0  0  0  0  0
   -9.7358    2.6735   -0.0000 C   0  0  0  0  0  0  0  0  0  0  0  0
   -4.5899    7.1688   -0.0000 C   0  0  0  0  0  0  0  0  0  0  0  0
   -9.7476    4.1759   -0.0000 C   0  0  0  0  0  0  0  0  0  0  0  0
   -4.6017    8.6711   -0.0000 N   0  0  0  0  0  0  0  0  0  0  0  0
  -11.0371    4.9330   -0.0000 C   0  0  0  0  0  0  0  0  0  0  0  0
   -3.3241    9.4282   -0.0000 C   0  0  0  0  0  0  0  0  0  0  0  0
  -12.3502    4.1995   -0.0000 C   0  0  0  0  0  0  0  0  0  0  0  0
  -11.0489    6.4472   -0.0000 C   0  0  0  0  0  0  0  0  0  0  0  0
   -3.3360   10.9306   -0.0000 O   0  0  0  0  0  0  0  0  0  0  0  0
   -2.0347    8.6948   -0.0000 C   0  0  0  0  0  0  0  0  0  0  0  0
  -13.6514    4.9566   -0.0000 N   0  0  0  0  0  0  0  0  0  0  0  0
  -12.3620    2.7208   -0.0000 N   0  0  0  0  0  0  0  0  0  0  0  0
  -12.3620    7.1924   -0.0000 N   0  0  0  0  0  0  0  0  0  0  0  0
   -9.7713    7.2043   -0.0000 C   0  0  0  0  0  0  0  0  0  0  0  0
  -13.6633    6.4590   -0.0000 C   0  0  0  0  0  0  0  0  0  0  0  0
   -9.7950    8.7066   -0.0000 C   0  0  0  0  0  0  0  0  0  0  0  0
  -14.9764    7.2161   -0.0000 N   0  0  0  0  0  0  0  0  0  0  0  0
  1  2  1  0
  2  3  2  0
  2  4  1  0
  3  5  1  0
  4  6  2  0
  5  7  1  0
  5  8  2  0
  6  9  1  0
  9 10  1  0
  9 11  1  0
  9 12  1  0
 10 13  1  0
 11 14  2  0
 11 15  1  0
 13 16  2  0
 13 17  1  0
 15 18  1  0
 16 19  1  0
 17 20  2  0
 18 21  1  0
 19 22  2  0
 21 23  1  0
 22 24  1  0
 23 25  1  0
 24 26  2  0
 24 27  1  0
 25 28  2  0
 25 29  1  0
 26 30  1  0
 26 31  1  0
 27 32  2  0
 27 33  1  0
 30 34  2  0
 33 35  1  0
 34 36  1  0
  6  8  1  0
 15 16  1  0
 20 22  1  0
 32 34  1  0
M  END
>  <MolRegNo>  (1) 
405790

>  <m>  (1) 
=

>  <Value>  (1) 
30000

>  <Unit>  (1) 
nM

>  <Type>  (1) 
IC50

>  <pValue>  (1) 
4.52

>  <Ligand Efficiency>  (1) 
0

>  <Binding Efficiency>  (1) 
0

>  <Surface Efficiency>  (1) 
0

>  <Assay Index>  (1) 
297171

>  <Assay Category>  (1) 


>  <Assay Organism>  (1) 


>  <Target ID>  (1) 
11365

>  <Target Name>  (1) 
Cytochrome P450 2D6

>  <Target Organism>  (1) 
Homo sapiens

>  <Target Description>  (1) 
Target is a single protein chain

>  <Sequence Accession>  (1) 
P10635

>  <Reference>  (1) 
Bioorg Med Chem 15 (17), 5912-5949 (2007)

>  <Pubmed ID>  (1) 
17574423

>  <DOI>  (1) 
10.1016/j.bmc.2007.05.069

$$$$
