4wnv_ligand_224
     RDKit          2D

 35 38  0  0  1  0  0  0  0  0999 V2000
    0.0000   -0.0000   -0.0000 S   0  0  0  0  0  0  0  0  0  0  0  0
   -0.0119   -1.4892   -0.0000 O   0  0  0  0  0  0  0  0  0  0  0  0
   -0.0119    1.5131   -0.0000 O   0  0  0  0  0  0  0  0  0  0  0  0
   -1.5131    0.0119   -0.0000 N   0  0  0  0  0  0  0  0  0  0  0  0
    1.4892    0.0238   -0.0000 C   0  0  0  0  0  0  0  0  0  0  0  0
   -2.2755    1.3224   -0.0000 C   0  0  0  0  0  0  0  0  0  0  0  0
    2.2398   -1.2629   -0.0000 C   0  0  0  0  0  0  0  0  0  0  0  0
   -1.5369    2.6330   -0.0000 C   0  0  0  0  0  0  0  0  0  0  0  0
    3.7290   -1.2390   -0.0000 C   0  0  0  0  0  0  0  0  0  0  0  0
   -0.0596    2.6449   -0.0000 C   0  0  0  0  0  0  0  0  0  0  0  0
   -2.2994    3.9435   -0.0000 C   0  0  0  0  0  0  0  0  0  0  0  0
    0.6672    3.9435   -0.0000 C   0  0  0  0  0  0  0  0  0  0  0  0
   -1.5607    5.2540   -0.0000 C   0  0  0  0  0  0  0  0  0  0  0  0
   -0.0953    5.2540   -0.0000 C   0  0  0  0  0  0  0  0  0  0  0  0
    2.1207    4.2651   -0.0000 C   0  0  0  0  0  0  0  0  0  0  0  0
    0.8935    6.3858   -0.0000 O   0  0  0  0  0  0  0  0  0  0  0  0
    2.2636    5.7663   -0.0000 C   0  0  0  0  0  0  0  0  0  0  0  0
    3.5503    6.5288   -0.0000 C   0  0  0  0  0  0  0  0  0  0  0  0
    3.5384    8.0418   -0.0000 O   0  0  0  0  0  0  0  0  0  0  0  0
    4.8370    5.7901   -0.0000 N   0  0  0  0  0  0  0  0  0  0  0  0
    6.1237    6.5526   -0.0000 C   0  0  0  0  0  0  0  0  0  0  0  0
    4.8251    4.3009   -0.0000 C   0  0  0  0  0  0  0  0  0  0  0  0
    6.1118    8.0657   -0.0000 C   0  0  0  0  0  0  0  0  0  0  0  0
    7.4104    5.8139   -0.0000 C   0  0  0  0  0  0  0  0  0  0  0  0
    4.8013    8.8281   -0.0000 C   0  0  0  0  0  0  0  0  0  0  0  0
    7.4104    8.8281   -0.0000 C   0  0  0  0  0  0  0  0  0  0  0  0
    8.6971    6.5764   -0.0000 N   0  0  0  0  0  0  0  0  0  0  0  0
    4.7894   10.3412   -0.0000 C   0  0  0  0  0  0  0  0  0  0  0  0
    7.3985   10.3531   -0.0000 C   0  0  0  0  0  0  0  0  0  0  0  0
   10.0553    5.9807   -0.0000 C   0  0  0  0  0  0  0  0  0  0  0  0
    8.8401    8.0895   -0.0000 C   0  0  0  0  0  0  0  0  0  0  0  0
    6.0760   11.1037   -0.0000 C   0  0  0  0  0  0  0  0  0  0  0  0
   11.0441    7.1125   -0.0000 C   0  0  0  0  0  0  0  0  0  0  0  0
   10.2935    8.4112   -0.0000 C   0  0  0  0  0  0  0  0  0  0  0  0
   12.5214    6.9696   -0.0000 O   0  0  0  0  0  0  0  0  0  0  0  0
  1  2  2  0
  1  3  2  0
  1  4  1  0
  1  5  1  0
  4  6  1  0
  5  7  1  0
  6  8  1  0
  7  9  1  0
  8 10  2  0
  8 11  1  0
 10 12  1  0
 11 13  2  0
 12 14  2  0
 12 15  1  0
 14 16  1  0
 15 17  1  0
 17 18  1  1
 18 19  2  0
 18 20  1  0
 21 20  1  0
 20 22  1  0
 21 23  1  0
 21 24  1  1
 23 25  2  0
 23 26  1  0
 24 27  1  0
 25 28  1  0
 26 29  2  0
 27 30  1  0
 27 31  1  0
 28 32  2  0
 30 33  1  0
 31 34  1  0
 33 35  1  6
 13 14  1  0
 16 17  1  0
 29 32  1  0
 33 34  1  0
M  END
>  <MolRegNo>  (1) 
332075

>  <m>  (1) 
=

>  <Value>  (1) 
5700

>  <Unit>  (1) 
nM

>  <Type>  (1) 
IC50

>  <pValue>  (1) 
5.24

>  <Ligand Efficiency>  (1) 
0

>  <Binding Efficiency>  (1) 
0

>  <Surface Efficiency>  (1) 
0

>  <Assay Index>  (1) 
253815

>  <Assay Category>  (1) 


>  <Assay Organism>  (1) 
Homo sapiens

>  <Target ID>  (1) 
11365

>  <Target Name>  (1) 
Cytochrome P450 2D6

>  <Target Organism>  (1) 
Homo sapiens

>  <Target Description>  (1) 
Target is a single protein chain

>  <Sequence Accession>  (1) 
P10635

>  <Reference>  (1) 
Bioorg Med Chem Lett 15 (23), 5114-5119 (2005)

>  <Pubmed ID>  (1) 
16203140

>  <DOI>  (1) 
10.1016/j.bmcl.2005.08.094

$$$$
