4wnv_ligand_974
     RDKit          2D

 29 32  0  0  0  0  0  0  0  0999 V2000
    0.0000   -0.0000   -0.0000 S   0  0  0  0  0  0  0  0  0  0  0  0
    1.2815    0.7713   -0.0000 O   0  0  0  0  0  0  0  0  0  0  0  0
    0.7238   -1.2815   -0.0000 O   0  0  0  0  0  0  0  0  0  0  0  0
   -1.3053   -0.7476   -0.0000 C   0  0  0  0  0  0  0  0  0  0  0  0
   -0.0119    1.5189   -0.0000 C   0  0  0  0  0  0  0  0  0  0  0  0
   -2.6224    0.0119   -0.0000 C   0  0  0  0  0  0  0  0  0  0  0  0
   -1.3053   -2.2308   -0.0000 C   0  0  0  0  0  0  0  0  0  0  0  0
    1.2934    2.2901   -0.0000 C   0  0  0  0  0  0  0  0  0  0  0  0
   -3.9277   -0.7357   -0.0000 C   0  0  0  0  0  0  0  0  0  0  0  0
   -2.6105   -2.9784   -0.0000 C   0  0  0  0  0  0  0  0  0  0  0  0
    2.5868    1.5545   -0.0000 C   0  0  0  0  0  0  0  0  0  0  0  0
    1.2815    3.7971   -0.0000 C   0  0  0  0  0  0  0  0  0  0  0  0
   -3.9277   -2.2308   -0.0000 C   0  0  0  0  0  0  0  0  0  0  0  0
    3.8683    2.3257   -0.0000 C   0  0  0  0  0  0  0  0  0  0  0  0
    2.5749    4.5566   -0.0000 C   0  0  0  0  0  0  0  0  0  0  0  0
   -5.2329   -2.9784   -0.0000 C   0  0  0  0  0  0  0  0  0  0  0  0
    3.8565    3.8446   -0.0000 C   0  0  0  0  0  0  0  0  0  0  0  0
    5.0193    1.4002   -0.0000 C   0  0  0  0  0  0  0  0  0  0  0  0
   -6.5501   -2.2190   -0.0000 C   0  0  0  0  0  0  0  0  0  0  0  0
   -5.2329   -4.4616   -0.0000 C   0  0  0  0  0  0  0  0  0  0  0  0
    5.0193    4.7820   -0.0000 C   0  0  0  0  0  0  0  0  0  0  0  0
    6.4670    1.7443   -0.0000 C   0  0  0  0  0  0  0  0  0  0  0  0
   -7.8553   -2.9665   -0.0000 C   0  0  0  0  0  0  0  0  0  0  0  0
   -6.5382   -5.2092   -0.0000 C   0  0  0  0  0  0  0  0  0  0  0  0
    6.4670    4.4616   -0.0000 C   0  0  0  0  0  0  0  0  0  0  0  0
    7.1078    3.1089   -0.0000 N   0  0  0  0  0  0  0  0  0  0  0  0
   -9.1725   -2.2071   -0.0000 F   0  0  0  0  0  0  0  0  0  0  0  0
   -7.8553   -4.4616   -0.0000 C   0  0  0  0  0  0  0  0  0  0  0  0
   -9.1606   -5.2092   -0.0000 F   0  0  0  0  0  0  0  0  0  0  0  0
  1  2  2  0
  1  3  2  0
  1  4  1  0
  1  5  1  0
  4  6  2  0
  4  7  1  0
  5  8  1  0
  6  9  1  0
  7 10  2  0
  8 11  2  0
  8 12  1  0
  9 13  2  0
 11 14  1  0
 12 15  2  0
 13 16  1  0
 14 17  2  0
 14 18  1  0
 16 19  2  0
 16 20  1  0
 17 21  1  0
 18 22  1  0
 19 23  1  0
 20 24  2  0
 21 25  1  0
 22 26  1  0
 23 27  1  0
 23 28  2  0
 28 29  1  0
 10 13  1  0
 15 17  1  0
 24 28  1  0
 25 26  1  0
M  END
>  <MolRegNo>  (1) 
617620

>  <m>  (1) 
=

>  <Value>  (1) 
100

>  <Unit>  (1) 
nM

>  <Type>  (1) 
IC50

>  <pValue>  (1) 
7

>  <Ligand Efficiency>  (1) 
0

>  <Binding Efficiency>  (1) 
0

>  <Surface Efficiency>  (1) 
0

>  <Assay Index>  (1) 
468007

>  <Assay Category>  (1) 


>  <Assay Organism>  (1) 
Homo sapiens

>  <Target ID>  (1) 
11365

>  <Target Name>  (1) 
Cytochrome P450 2D6

>  <Target Organism>  (1) 
Homo sapiens

>  <Target Description>  (1) 
Target is a single protein chain

>  <Sequence Accession>  (1) 
P10635

>  <Reference>  (1) 
Bioorg Med Chem Lett 19 (22), 6452-6458 (2009)

>  <Pubmed ID>  (1) 
19804969

>  <DOI>  (1) 
10.1016/j.bmcl.2009.09.027

$$$$
