4wnv_ligand_319
     RDKit          2D

 24 26  0  0  0  0  0  0  0  0999 V2000
    0.0000   -0.0000   -0.0000 O   0  0  0  0  0  0  0  0  0  0  0  0
   -0.0119    1.5079   -0.0000 C   0  0  0  0  0  0  0  0  0  0  0  0
   -1.3179    2.2677   -0.0000 O   0  0  0  0  0  0  0  0  0  0  0  0
    1.2704    2.2677   -0.0000 N   0  0  0  0  0  0  0  0  0  0  0  0
   -2.6239    1.5316   -0.0000 C   0  0  0  0  0  0  0  0  0  0  0  0
    2.5527    1.5197   -0.0000 C   0  0  0  0  0  0  0  0  0  0  0  0
    1.2467    3.7756   -0.0000 C   0  0  0  0  0  0  0  0  0  0  0  0
   -3.9299    2.2915   -0.0000 C   0  0  0  0  0  0  0  0  0  0  0  0
    3.8349    2.2796   -0.0000 C   0  0  0  0  0  0  0  0  0  0  0  0
    2.5408    4.5354   -0.0000 C   0  0  0  0  0  0  0  0  0  0  0  0
   -5.2478    1.5553   -0.0000 C   0  0  0  0  0  0  0  0  0  0  0  0
   -3.9418    3.8112   -0.0000 C   0  0  0  0  0  0  0  0  0  0  0  0
    3.8231    3.7874   -0.0000 C   0  0  0  0  0  0  0  0  0  0  0  0
   -6.5538    2.3152   -0.0000 C   0  0  0  0  0  0  0  0  0  0  0  0
   -5.2478    4.5711   -0.0000 C   0  0  0  0  0  0  0  0  0  0  0  0
    5.1053    4.5473   -0.0000 C   0  0  0  0  0  0  0  0  0  0  0  0
   -6.5657    3.8349   -0.0000 C   0  0  0  0  0  0  0  0  0  0  0  0
    6.3876    3.8112   -0.0000 N   0  0  0  0  0  0  0  0  0  0  0  0
    7.6699    4.5711   -0.0000 C   0  0  0  0  0  0  0  0  0  0  0  0
    7.6580    6.0789   -0.0000 N   0  0  0  0  0  0  0  0  0  0  0  0
    8.9521    3.8349   -0.0000 C   0  0  0  0  0  0  0  0  0  0  0  0
    8.9403    6.8388   -0.0000 C   0  0  0  0  0  0  0  0  0  0  0  0
   10.2344    4.5948   -0.0000 N   0  0  0  0  0  0  0  0  0  0  0  0
   10.2344    6.1027   -0.0000 C   0  0  0  0  0  0  0  0  0  0  0  0
  1  2  2  0
  2  3  1  0
  2  4  1  0
  3  5  1  0
  4  6  1  0
  4  7  1  0
  5  8  1  0
  6  9  1  0
  7 10  1  0
  8 11  2  0
  8 12  1  0
  9 13  1  0
 11 14  1  0
 12 15  2  0
 13 16  1  0
 14 17  2  0
 16 18  1  0
 18 19  1  0
 19 20  2  0
 19 21  1  0
 20 22  1  0
 21 23  2  0
 22 24  2  0
 10 13  1  0
 15 17  1  0
 23 24  1  0
M  END
>  <MolRegNo>  (1) 
367443

>  <m>  (1) 
=

>  <Value>  (1) 
1700

>  <Unit>  (1) 
nM

>  <Type>  (1) 
IC50

>  <pValue>  (1) 
5.77

>  <Ligand Efficiency>  (1) 
0

>  <Binding Efficiency>  (1) 
0

>  <Surface Efficiency>  (1) 
0

>  <Assay Index>  (1) 
274142

>  <Assay Category>  (1) 


>  <Assay Organism>  (1) 
Homo sapiens

>  <Target ID>  (1) 
11365

>  <Target Name>  (1) 
Cytochrome P450 2D6

>  <Target Organism>  (1) 
Homo sapiens

>  <Target Description>  (1) 
Target is a single protein chain

>  <Sequence Accession>  (1) 
P10635

>  <Reference>  (1) 
J Med Chem 50 (4), 807-819 (2007)

>  <Pubmed ID>  (1) 
17249648

>  <DOI>  (1) 
10.1021/jm060983w

$$$$
