4wnv_ligand_262
     RDKit          2D

 28 31  0  0  0  0  0  0  0  0999 V2000
    0.0000   -0.0000   -0.0000 O   0  0  0  0  0  0  0  0  0  0  0  0
    1.2889   -0.7450   -0.0000 C   0  0  0  0  0  0  0  0  0  0  0  0
   -1.3126   -0.7450   -0.0000 C   0  0  0  0  0  0  0  0  0  0  0  0
    1.2771   -2.2349   -0.0000 C   0  0  0  0  0  0  0  0  0  0  0  0
    2.5778    0.0118   -0.0000 C   0  0  0  0  0  0  0  0  0  0  0  0
   -2.6251    0.0118   -0.0000 C   0  0  0  0  0  0  0  0  0  0  0  0
    2.5660   -2.9681   -0.0000 C   0  0  0  0  0  0  0  0  0  0  0  0
    3.8667   -0.7331   -0.0000 C   0  0  0  0  0  0  0  0  0  0  0  0
   -3.9377   -0.7331   -0.0000 N   0  0  0  0  0  0  0  0  0  0  0  0
    3.8549   -2.2113   -0.0000 C   0  0  0  0  0  0  0  0  0  0  0  0
   -3.9495   -2.2231   -0.0000 C   0  0  0  0  0  0  0  0  0  0  0  0
   -5.2503    0.0236   -0.0000 C   0  0  0  0  0  0  0  0  0  0  0  0
    5.1438   -2.9444   -0.0000 C   0  0  0  0  0  0  0  0  0  0  0  0
   -5.2621   -2.9562   -0.0000 C   0  0  0  0  0  0  0  0  0  0  0  0
   -6.5628   -0.7213   -0.0000 C   0  0  0  0  0  0  0  0  0  0  0  0
    6.4328   -2.1876   -0.0000 N   0  0  0  0  0  0  0  0  0  0  0  0
   -6.5747   -2.1994   -0.0000 C   0  0  0  0  0  0  0  0  0  0  0  0
    7.7217   -2.9208   -0.0000 C   0  0  0  0  0  0  0  0  0  0  0  0
    6.4209   -0.6740   -0.0000 C   0  0  0  0  0  0  0  0  0  0  0  0
   -7.8872   -2.9326   -0.0000 C   0  0  0  0  0  0  0  0  0  0  0  0
    9.0106   -2.1640   -0.0000 C   0  0  0  0  0  0  0  0  0  0  0  0
    7.7098    0.0828   -0.0000 C   0  0  0  0  0  0  0  0  0  0  0  0
   -9.1998   -2.1758   -0.0000 C   0  0  0  0  0  0  0  0  0  0  0  0
    8.9988   -0.6504   -0.0000 C   0  0  0  0  0  0  0  0  0  0  0  0
  -10.5833   -2.7789   -0.0000 N   0  0  0  0  0  0  0  0  0  0  0  0
   -9.3772   -0.6740   -0.0000 C   0  0  0  0  0  0  0  0  0  0  0  0
  -11.6002   -1.6437   -0.0000 C   0  0  0  0  0  0  0  0  0  0  0  0
  -10.8553   -0.3429   -0.0000 N   0  0  0  0  0  0  0  0  0  0  0  0
  1  2  1  0
  1  3  1  0
  2  4  2  0
  2  5  1  0
  3  6  1  0
  4  7  1  0
  5  8  2  0
  6  9  1  0
  7 10  2  0
  9 11  1  0
  9 12  1  0
 10 13  1  0
 11 14  1  0
 12 15  1  0
 13 16  1  0
 14 17  1  0
 16 18  1  0
 16 19  1  0
 17 20  1  0
 18 21  1  0
 19 22  1  0
 20 23  1  0
 21 24  1  0
 23 25  1  0
 23 26  2  0
 25 27  2  0
 26 28  1  0
  8 10  1  0
 15 17  1  0
 22 24  1  0
 27 28  1  0
M  END
>  <MolRegNo>  (1) 
339621

>  <m>  (1) 
=

>  <Value>  (1) 
3000

>  <Unit>  (1) 
nM

>  <Type>  (1) 
IC50

>  <pValue>  (1) 
5.52

>  <Ligand Efficiency>  (1) 
0

>  <Binding Efficiency>  (1) 
0

>  <Surface Efficiency>  (1) 
0

>  <Assay Index>  (1) 
257619

>  <Assay Category>  (1) 


>  <Assay Organism>  (1) 
Homo sapiens

>  <Target ID>  (1) 
11365

>  <Target Name>  (1) 
Cytochrome P450 2D6

>  <Target Organism>  (1) 
Homo sapiens

>  <Target Description>  (1) 
Target is a single protein chain

>  <Sequence Accession>  (1) 
P10635

>  <Reference>  (1) 
Bioorg Med Chem Lett 16 (4), 989-994 (2006)

>  <Pubmed ID>  (1) 
16297617

>  <DOI>  (1) 
10.1016/j.bmcl.2005.10.087

$$$$
