4wnv_ligand_892
     RDKit          2D

 26 29  0  0  0  0  0  0  0  0999 V2000
    0.0000   -0.0000   -0.0000 Cl  0  0  0  0  0  0  0  0  0  0  0  0
    1.2883    0.7634   -0.0000 C   0  0  0  0  0  0  0  0  0  0  0  0
    2.5766    0.0239   -0.0000 C   0  0  0  0  0  0  0  0  0  0  0  0
    1.2764    2.2784   -0.0000 C   0  0  0  0  0  0  0  0  0  0  0  0
    3.8769    0.7873   -0.0000 C   0  0  0  0  0  0  0  0  0  0  0  0
    2.5647    3.0418   -0.0000 C   0  0  0  0  0  0  0  0  0  0  0  0
    5.1652    0.0477   -0.0000 N   0  0  0  0  0  0  0  0  0  0  0  0
    3.8649    2.3142   -0.0000 C   0  0  0  0  0  0  0  0  0  0  0  0
    6.4535    0.8112   -0.0000 C   0  0  0  0  0  0  0  0  0  0  0  0
    7.7418    0.0716   -0.0000 N   0  0  0  0  0  0  0  0  0  0  0  0
    6.4296    2.3261   -0.0000 C   0  0  0  0  0  0  0  0  0  0  0  0
    9.0301    0.8350   -0.0000 C   0  0  0  0  0  0  0  0  0  0  0  0
    7.7060    3.0896   -0.0000 C   0  0  0  0  0  0  0  0  0  0  0  0
    5.3083    3.3281   -0.0000 C   0  0  0  0  0  0  0  0  0  0  0  0
    9.0182    2.3500   -0.0000 C   0  0  0  0  0  0  0  0  0  0  0  0
    7.3720    4.5568   -0.0000 N   0  0  0  0  0  0  0  0  0  0  0  0
    5.8928    4.7119   -0.0000 C   0  0  0  0  0  0  0  0  0  0  0  0
   10.3065    3.1253   -0.0000 C   0  0  0  0  0  0  0  0  0  0  0  0
    8.3621    5.6900   -0.0000 C   0  0  0  0  0  0  0  0  0  0  0  0
   10.2826    4.6403   -0.0000 O   0  0  0  0  0  0  0  0  0  0  0  0
   11.6067    2.3858   -0.0000 N   0  0  0  0  0  0  0  0  0  0  0  0
   11.5948    0.8827   -0.0000 C   0  0  0  0  0  0  0  0  0  0  0  0
   12.8831    3.1611   -0.0000 C   0  0  0  0  0  0  0  0  0  0  0  0
   12.8831    0.1551   -0.0000 C   0  0  0  0  0  0  0  0  0  0  0  0
   14.1833    2.4215   -0.0000 C   0  0  0  0  0  0  0  0  0  0  0  0
   14.1714    0.9185   -0.0000 O   0  0  0  0  0  0  0  0  0  0  0  0
  1  2  1  0
  2  3  2  0
  2  4  1  0
  3  5  1  0
  4  6  2  0
  5  7  1  0
  5  8  2  0
  7  9  1  0
  9 10  2  0
  9 11  1  0
 10 12  1  0
 11 13  2  0
 11 14  1  0
 12 15  2  0
 13 16  1  0
 14 17  2  0
 15 18  1  0
 16 19  1  0
 18 20  2  0
 18 21  1  0
 21 22  1  0
 21 23  1  0
 22 24  1  0
 23 25  1  0
 24 26  1  0
  6  8  1  0
 13 15  1  0
 16 17  1  0
 25 26  1  0
M  END
>  <MolRegNo>  (1) 
582564

>  <m>  (1) 
=

>  <Value>  (1) 
21000

>  <Unit>  (1) 
nM

>  <Type>  (1) 
IC50

>  <pValue>  (1) 
4.68

>  <Ligand Efficiency>  (1) 
0

>  <Binding Efficiency>  (1) 
0

>  <Surface Efficiency>  (1) 
0

>  <Assay Index>  (1) 
442615

>  <Assay Category>  (1) 


>  <Assay Organism>  (1) 


>  <Target ID>  (1) 
11365

>  <Target Name>  (1) 
Cytochrome P450 2D6

>  <Target Organism>  (1) 
Homo sapiens

>  <Target Description>  (1) 
Target is a single protein chain

>  <Sequence Accession>  (1) 
P10635

>  <Reference>  (1) 
J Med Chem 52 (19), 5785-5788 (2009)

>  <Pubmed ID>  (1) 
19743867

>  <DOI>  (1) 
10.1021/jm9009857

$$$$
