4wnv_ligand_613
     RDKit          2D

 25 27  0  0  0  0  0  0  0  0999 V2000
    0.0000   -0.0000   -0.0000 Cl  0  0  0  0  0  0  0  0  0  0  0  0
    1.2873    0.7628   -0.0000 C   0  0  0  0  0  0  0  0  0  0  0  0
    2.5745    0.0238   -0.0000 C   0  0  0  0  0  0  0  0  0  0  0  0
    1.2753    2.2884   -0.0000 C   0  0  0  0  0  0  0  0  0  0  0  0
    3.8618    0.7986   -0.0000 C   0  0  0  0  0  0  0  0  0  0  0  0
    2.5626    3.0513   -0.0000 C   0  0  0  0  0  0  0  0  0  0  0  0
    5.1490    0.0596   -0.0000 N   0  0  0  0  0  0  0  0  0  0  0  0
    3.8498    2.3242   -0.0000 C   0  0  0  0  0  0  0  0  0  0  0  0
    6.4363    0.8224   -0.0000 C   0  0  0  0  0  0  0  0  0  0  0  0
    5.1371    3.0870   -0.0000 C   0  0  0  0  0  0  0  0  0  0  0  0
    6.4124    2.3480   -0.0000 C   0  0  0  0  0  0  0  0  0  0  0  0
    5.1133    4.6007   -0.0000 N   0  0  0  0  0  0  0  0  0  0  0  0
    6.4005    5.3755   -0.0000 C   0  0  0  0  0  0  0  0  0  0  0  0
    7.6878    4.6365   -0.0000 C   0  0  0  0  0  0  0  0  0  0  0  0
    6.3647    6.8773   -0.0000 C   0  0  0  0  0  0  0  0  0  0  0  0
    8.9750    5.4112   -0.0000 C   0  0  0  0  0  0  0  0  0  0  0  0
    7.6401    7.6520   -0.0000 C   0  0  0  0  0  0  0  0  0  0  0  0
   10.2742    4.6722   -0.0000 O   0  0  0  0  0  0  0  0  0  0  0  0
    8.9512    6.9249   -0.0000 C   0  0  0  0  0  0  0  0  0  0  0  0
   10.2384    7.6997   -0.0000 C   0  0  0  0  0  0  0  0  0  0  0  0
   11.5376    6.9726   -0.0000 N   0  0  0  0  0  0  0  0  0  0  0  0
   12.8248    7.7474   -0.0000 C   0  0  0  0  0  0  0  0  0  0  0  0
   14.1121    8.5221   -0.0000 C   0  0  0  0  0  0  0  0  0  0  0  0
   13.5757    6.4601   -0.0000 C   0  0  0  0  0  0  0  0  0  0  0  0
   12.0501    9.0584   -0.0000 C   0  0  0  0  0  0  0  0  0  0  0  0
  1  2  1  0
  2  3  2  0
  2  4  1  0
  3  5  1  0
  4  6  2  0
  5  7  2  0
  5  8  1  0
  7  9  1  0
  8 10  2  0
  9 11  2  0
 10 12  1  0
 12 13  1  0
 13 14  2  0
 13 15  1  0
 14 16  1  0
 15 17  2  0
 16 18  1  0
 16 19  2  0
 19 20  1  0
 20 21  1  0
 21 22  1  0
 22 23  1  0
 22 24  1  0
 22 25  1  0
  6  8  1  0
 10 11  1  0
 17 19  1  0
M  END
>  <MolRegNo>  (1) 
242691

>  <m>  (1) 
=

>  <Value>  (1) 
3000

>  <Unit>  (1) 
nM

>  <Type>  (1) 
IC50

>  <pValue>  (1) 
5.52

>  <Ligand Efficiency>  (1) 
0

>  <Binding Efficiency>  (1) 
0

>  <Surface Efficiency>  (1) 
0

>  <Assay Index>  (1) 
343724

>  <Assay Category>  (1) 


>  <Assay Organism>  (1) 
Homo sapiens

>  <Target ID>  (1) 
11365

>  <Target Name>  (1) 
Cytochrome P450 2D6

>  <Target Organism>  (1) 
Homo sapiens

>  <Target Description>  (1) 
Target is a single protein chain

>  <Sequence Accession>  (1) 
P10635

>  <Reference>  (1) 
J Med Chem 52 (5), 1408-1415 (2009)

>  <Pubmed ID>  (1) 
19222165

>  <DOI>  (1) 
10.1021/jm8012618

$$$$
