4wnv_ligand_924
     RDKit          2D

 32 34  0  0  0  0  0  0  0  0999 V2000
    0.0000   -0.0000   -0.0000 Cl  0  0  0  0  0  0  0  0  0  0  0  0
   -0.0119    1.5103   -0.0000 C   0  0  0  0  0  0  0  0  0  0  0  0
   -1.3200    2.2714   -0.0000 C   0  0  0  0  0  0  0  0  0  0  0  0
    1.2844    2.2714   -0.0000 C   0  0  0  0  0  0  0  0  0  0  0  0
   -2.6282    1.5341   -0.0000 C   0  0  0  0  0  0  0  0  0  0  0  0
   -1.3319    3.7936   -0.0000 C   0  0  0  0  0  0  0  0  0  0  0  0
    1.2725    3.7936   -0.0000 C   0  0  0  0  0  0  0  0  0  0  0  0
   -3.9363    0.7968   -0.0000 N   0  0  0  0  0  0  0  0  0  0  0  0
   -0.0476    4.5547   -0.0000 C   0  0  0  0  0  0  0  0  0  0  0  0
    2.5568    4.5547   -0.0000 N   0  0  0  0  0  0  0  0  0  0  0  0
    3.8412    3.8174   -0.0000 C   0  0  0  0  0  0  0  0  0  0  0  0
    2.5449    6.0651   -0.0000 C   0  0  0  0  0  0  0  0  0  0  0  0
    3.9958    2.3309   -0.0000 C   0  0  0  0  0  0  0  0  0  0  0  0
    5.2088    4.4358   -0.0000 C   0  0  0  0  0  0  0  0  0  0  0  0
    3.8293    6.8262   -0.0000 C   0  0  0  0  0  0  0  0  0  0  0  0
    5.4467    2.0336   -0.0000 N   0  0  0  0  0  0  0  0  0  0  0  0
    6.2078    3.3417   -0.0000 C   0  0  0  0  0  0  0  0  0  0  0  0
    3.8055    8.3246   -0.0000 C   0  0  0  0  0  0  0  0  0  0  0  0
    5.1137    6.0888   -0.0000 C   0  0  0  0  0  0  0  0  0  0  0  0
    6.0413    0.6779   -0.0000 C   0  0  0  0  0  0  0  0  0  0  0  0
    5.0780    9.0976   -0.0000 C   0  0  0  0  0  0  0  0  0  0  0  0
    2.4855    9.0738   -0.0000 C   0  0  0  0  0  0  0  0  0  0  0  0
    6.3980    6.8500   -0.0000 C   0  0  0  0  0  0  0  0  0  0  0  0
    5.1494   -0.5233   -0.0000 O   0  0  0  0  0  0  0  0  0  0  0  0
    7.5159    0.5352   -0.0000 C   0  0  0  0  0  0  0  0  0  0  0  0
    6.3743    8.3603   -0.0000 C   0  0  0  0  0  0  0  0  0  0  0  0
    2.4617   10.5841   -0.0000 F   0  0  0  0  0  0  0  0  0  0  0  0
    1.1773    8.3246   -0.0000 F   0  0  0  0  0  0  0  0  0  0  0  0
    1.1654    9.8468   -0.0000 F   0  0  0  0  0  0  0  0  0  0  0  0
    8.1224   -0.8206   -0.0000 C   0  0  0  0  0  0  0  0  0  0  0  0
    8.3841    1.7601   -0.0000 C   0  0  0  0  0  0  0  0  0  0  0  0
    9.0025    0.5470   -0.0000 C   0  0  0  0  0  0  0  0  0  0  0  0
  1  2  1  0
  2  3  2  0
  2  4  1  0
  3  5  1  0
  3  6  1  0
  4  7  2  0
  5  8  3  0
  6  9  2  0
  7 10  1  0
 11 10  1  1
 10 12  1  0
 11 13  1  0
 11 14  1  0
 12 15  1  0
 13 16  1  0
 14 17  1  0
 15 18  2  0
 15 19  1  0
 16 20  1  0
 18 21  1  0
 18 22  1  0
 19 23  2  0
 20 24  2  0
 20 25  1  0
 21 26  2  0
 22 27  1  0
 22 28  1  0
 22 29  1  0
 25 30  1  0
 25 31  1  0
 25 32  1  0
  7  9  1  0
 16 17  1  0
 23 26  1  0
M  END
>  <MolRegNo>  (1) 
590219

>  <m>  (1) 
=

>  <Value>  (1) 
16000

>  <Unit>  (1) 
nM

>  <Type>  (1) 
IC50

>  <pValue>  (1) 
4.8

>  <Ligand Efficiency>  (1) 
0

>  <Binding Efficiency>  (1) 
0

>  <Surface Efficiency>  (1) 
0

>  <Assay Index>  (1) 
452357

>  <Assay Category>  (1) 


>  <Assay Organism>  (1) 


>  <Target ID>  (1) 
11365

>  <Target Name>  (1) 
Cytochrome P450 2D6

>  <Target Organism>  (1) 
Homo sapiens

>  <Target Description>  (1) 
Target is a single protein chain

>  <Sequence Accession>  (1) 
P10635

>  <Reference>  (1) 
Bioorg Med Chem Lett 20 (1), 371-374 (2010)

>  <Pubmed ID>  (1) 
19926282

>  <DOI>  (1) 
10.1016/j.bmcl.2009.10.092

$$$$
