4wnv_ligand_33
     RDKit          2D

 17 18  0  0  0  0  0  0  0  0999 V2000
    0.0000   -0.0000   -0.0000 O   0  0  0  0  0  0  0  0  0  0  0  0
    1.2857    0.7597   -0.0000 C   0  0  0  0  0  0  0  0  0  0  0  0
   -1.3091    0.7597   -0.0000 C   0  0  0  0  0  0  0  0  0  0  0  0
    1.2740    2.2558   -0.0000 C   0  0  0  0  0  0  0  0  0  0  0  0
    2.5714    0.0117   -0.0000 C   0  0  0  0  0  0  0  0  0  0  0  0
   -2.6181    0.0234   -0.0000 C   0  0  0  0  0  0  0  0  0  0  0  0
    2.5597    3.0155   -0.0000 C   0  0  0  0  0  0  0  0  0  0  0  0
    3.8571    0.7714   -0.0000 C   0  0  0  0  0  0  0  0  0  0  0  0
   -3.9272    0.7831   -0.0000 C   0  0  0  0  0  0  0  0  0  0  0  0
    3.8571    2.2792   -0.0000 C   0  0  0  0  0  0  0  0  0  0  0  0
   -5.2479    0.0468   -0.0000 C   0  0  0  0  0  0  0  0  0  0  0  0
    5.1427    3.0506   -0.0000 N   0  0  0  0  0  0  0  0  0  0  0  0
    5.2713    4.5466   -0.0000 C   0  0  0  0  0  0  0  0  0  0  0  0
    6.4986    2.4545   -0.0000 C   0  0  0  0  0  0  0  0  0  0  0  0
    6.7323    4.8739   -0.0000 N   0  0  0  0  0  0  0  0  0  0  0  0
    4.1493    5.5635   -0.0000 C   0  0  0  0  0  0  0  0  0  0  0  0
    7.4920    3.5765   -0.0000 C   0  0  0  0  0  0  0  0  0  0  0  0
  1  2  1  0
  1  3  1  0
  2  4  2  0
  2  5  1  0
  3  6  1  0
  4  7  1  0
  5  8  2  0
  6  9  1  0
  7 10  2  0
  9 11  1  0
 10 12  1  0
 12 13  1  0
 12 14  1  0
 13 15  2  0
 13 16  1  0
 14 17  2  0
  8 10  1  0
 15 17  1  0
M  END
>  <MolRegNo>  (1) 
251526

>  <m>  (1) 
=

>  <Value>  (1) 
39800

>  <Unit>  (1) 
nM

>  <Type>  (1) 
IC50

>  <pValue>  (1) 
4.4

>  <Ligand Efficiency>  (1) 
0

>  <Binding Efficiency>  (1) 
0

>  <Surface Efficiency>  (1) 
0

>  <Assay Index>  (1) 
51627

>  <Assay Category>  (1) 


>  <Assay Organism>  (1) 


>  <Target ID>  (1) 
11365

>  <Target Name>  (1) 
Cytochrome P450 2D6

>  <Target Organism>  (1) 
Homo sapiens

>  <Target Description>  (1) 
Target is a single protein chain

>  <Sequence Accession>  (1) 
P10635

>  <Reference>  (1) 
J Med Chem 46 (25), 5416-5427 (2003)

>  <Pubmed ID>  (1) 
14640550

>  <DOI>  (1) 
10.1021/jm020557k

$$$$
