4wnv_ligand_486
     RDKit          2D

 36 39  0  0  1  0  0  0  0  0999 V2000
    0.0000   -0.0000   -0.0000 F   0  0  0  0  0  0  0  0  0  0  0  0
    1.4943   -0.0000   -0.0000 C   0  0  0  0  0  0  0  0  0  0  0  0
    2.2295   -1.2926   -0.0000 C   0  0  0  0  0  0  0  0  0  0  0  0
    2.2414    1.3045   -0.0000 C   0  0  0  0  0  0  0  0  0  0  0  0
    3.7238   -1.2926   -0.0000 C   0  0  0  0  0  0  0  0  0  0  0  0
    3.7238    1.3164   -0.0000 C   0  0  0  0  0  0  0  0  0  0  0  0
    4.4709    0.0237   -0.0000 C   0  0  0  0  0  0  0  0  0  0  0  0
    5.9652    0.0356   -0.0000 C   0  0  0  0  0  0  0  0  0  0  0  0
    6.7123    1.3519   -0.0000 C   0  0  0  0  0  0  0  0  0  0  0  0
    8.2065    1.3638   -0.0000 C   0  0  0  0  0  0  0  0  0  0  0  0
    5.9414    2.6683   -0.0000 C   0  0  0  0  0  0  0  0  0  0  0  0
    8.9537    2.6683   -0.0000 N   0  0  0  0  0  0  0  0  0  0  0  0
    6.6886    3.9847   -0.0000 C   0  0  0  0  0  0  0  0  0  0  0  0
   10.4479    2.6683   -0.0000 C   0  0  0  0  0  0  0  0  0  0  0  0
    8.1947    3.9847   -0.0000 C   0  0  0  0  0  0  0  0  0  0  0  0
   11.1951    3.9847   -0.0000 O   0  0  0  0  0  0  0  0  0  0  0  0
   11.1832    1.3757   -0.0000 C   0  0  0  0  0  0  0  0  0  0  0  0
   12.6774    1.3757   -0.0000 C   0  0  0  0  0  0  0  0  0  0  0  0
   13.4246    2.6920   -0.0000 N   0  0  0  0  0  0  0  0  0  0  0  0
   13.4127    0.0830   -0.0000 C   0  0  0  0  0  0  0  0  0  0  0  0
   14.9188    2.6920   -0.0000 C   0  0  0  0  0  0  0  0  0  0  0  0
   12.6419   -1.2096   -0.0000 C   0  0  0  0  0  0  0  0  0  0  0  0
   15.6541    1.3994   -0.0000 O   0  0  0  0  0  0  0  0  0  0  0  0
   15.6660    4.0084   -0.0000 N   0  0  0  0  0  0  0  0  0  0  0  0
   17.1602    4.0084   -0.0000 C   0  0  0  0  0  0  0  0  0  0  0  0
   17.8836    2.7157   -0.0000 C   0  0  0  0  0  0  0  0  0  0  0  0
   17.8955    5.3248   -0.0000 C   0  0  0  0  0  0  0  0  0  0  0  0
   19.3779    2.7157   -0.0000 C   0  0  0  0  0  0  0  0  0  0  0  0
   19.3897    5.3366   -0.0000 C   0  0  0  0  0  0  0  0  0  0  0  0
   20.1250    1.4231   -0.0000 C   0  0  0  0  0  0  0  0  0  0  0  0
   20.1250    4.0321   -0.0000 C   0  0  0  0  0  0  0  0  0  0  0  0
   21.6074    1.2689   -0.0000 N   0  0  0  0  0  0  0  0  0  0  0  0
   19.4965    0.0593   -0.0000 N   0  0  0  0  0  0  0  0  0  0  0  0
   21.9039   -0.1897   -0.0000 N   0  0  0  0  0  0  0  0  0  0  0  0
   20.5994   -0.9487   -0.0000 N   0  0  0  0  0  0  0  0  0  0  0  0
   18.0141   -0.2372   -0.0000 C   0  0  0  0  0  0  0  0  0  0  0  0
  1  2  1  0
  2  3  2  0
  2  4  1  0
  3  5  1  0
  4  6  2  0
  5  7  2  0
  7  8  1  0
  9  8  1  6
  9 10  1  0
  9 11  1  0
 10 12  1  0
 11 13  1  0
 12 14  1  0
 12 15  1  0
 14 16  1  6
 14 17  1  0
 18 17  1  6
 18 19  1  0
 18 20  1  0
 19 21  1  0
 20 22  1  0
 21 23  2  0
 21 24  1  0
 24 25  1  0
 25 26  2  0
 25 27  1  0
 26 28  1  0
 27 29  2  0
 28 30  1  0
 28 31  2  0
 30 32  2  0
 30 33  1  0
 32 34  1  0
 33 35  1  0
 33 36  1  0
  6  7  1  0
 13 15  1  0
 29 31  1  0
 34 35  2  0
M  END
>  <MolRegNo>  (1) 
438356

>  <m>  (1) 
=

>  <Value>  (1) 
900

>  <Unit>  (1) 
nM

>  <Type>  (1) 
IC50

>  <pValue>  (1) 
6.05

>  <Ligand Efficiency>  (1) 
0

>  <Binding Efficiency>  (1) 
0

>  <Surface Efficiency>  (1) 
0

>  <Assay Index>  (1) 
314783

>  <Assay Category>  (1) 


>  <Assay Organism>  (1) 


>  <Target ID>  (1) 
11365

>  <Target Name>  (1) 
Cytochrome P450 2D6

>  <Target Organism>  (1) 
Homo sapiens

>  <Target Description>  (1) 
Target is a single protein chain

>  <Sequence Accession>  (1) 
P10635

>  <Reference>  (1) 
Bioorg Med Chem Lett 18 (2), 576-585 (2008)

>  <Pubmed ID>  (1) 
18096386

>  <DOI>  (1) 
10.1016/j.bmcl.2007.11.067

$$$$
