4wnv_ligand_695
     RDKit          2D

 26 30  0  0  0  0  0  0  0  0999 V2000
    0.0000   -0.0000   -0.0000 O   0  0  0  0  0  0  0  0  0  0  0  0
   -1.4930   -0.1659   -0.0000 C   0  0  0  0  0  0  0  0  0  0  0  0
    0.6162   -1.3509   -0.0000 C   0  0  0  0  0  0  0  0  0  0  0  0
   -1.8011   -1.6234   -0.0000 C   0  0  0  0  0  0  0  0  0  0  0  0
   -2.6188    0.8295   -0.0000 C   0  0  0  0  0  0  0  0  0  0  0  0
   -0.4977   -2.3462   -0.0000 O   0  0  0  0  0  0  0  0  0  0  0  0
   -3.2468   -2.0855   -0.0000 C   0  0  0  0  0  0  0  0  0  0  0  0
   -4.0407    0.3673   -0.0000 C   0  0  0  0  0  0  0  0  0  0  0  0
   -4.3725   -1.0783   -0.0000 C   0  0  0  0  0  0  0  0  0  0  0  0
   -5.1664    1.3746   -0.0000 C   0  0  0  0  0  0  0  0  0  0  0  0
   -6.6002    0.9124   -0.0000 C   0  0  0  0  0  0  0  0  0  0  0  0
   -7.0742   -0.4977   -0.0000 C   0  0  0  0  0  0  0  0  0  0  0  0
   -7.8207    1.7893   -0.0000 C   0  0  0  0  0  0  0  0  0  0  0  0
   -8.5791   -0.4858   -0.0000 O   0  0  0  0  0  0  0  0  0  0  0  0
   -6.2092   -1.6945   -0.0000 O   0  0  0  0  0  0  0  0  0  0  0  0
   -9.0412    0.9361   -0.0000 C   0  0  0  0  0  0  0  0  0  0  0  0
   -7.8326    3.2942   -0.0000 C   0  0  0  0  0  0  0  0  0  0  0  0
   -9.1360    4.0526   -0.0000 C   0  0  0  0  0  0  0  0  0  0  0  0
   -9.1479    5.5693   -0.0000 C   0  0  0  0  0  0  0  0  0  0  0  0
  -10.4513    3.3179   -0.0000 C   0  0  0  0  0  0  0  0  0  0  0  0
  -10.4632    6.3158   -0.0000 C   0  0  0  0  0  0  0  0  0  0  0  0
  -11.7548    4.0763   -0.0000 C   0  0  0  0  0  0  0  0  0  0  0  0
  -10.7831    7.7852   -0.0000 O   0  0  0  0  0  0  0  0  0  0  0  0
  -11.7666    5.5812   -0.0000 C   0  0  0  0  0  0  0  0  0  0  0  0
  -12.2762    7.9511   -0.0000 C   0  0  0  0  0  0  0  0  0  0  0  0
  -12.8805    6.5884   -0.0000 O   0  0  0  0  0  0  0  0  0  0  0  0
  1  2  1  0
  1  3  1  0
  2  4  2  0
  2  5  1  0
  3  6  1  0
  4  7  1  0
  5  8  2  0
  7  9  2  0
  8 10  1  0
 11 10  1  1
 11 12  1  0
 11 13  1  0
 12 14  1  0
 12 15  1  1
 13 16  1  0
 13 17  1  6
 17 18  1  0
 18 19  2  0
 18 20  1  0
 19 21  1  0
 20 22  2  0
 21 23  1  0
 21 24  2  0
 23 25  1  0
 24 26  1  0
  4  6  1  0
  8  9  1  0
 14 16  1  0
 22 24  1  0
 25 26  1  0
M  END
>  <MolRegNo>  (1) 
400327

>  <m>  (1) 
=

>  <Value>  (1) 
35500

>  <Unit>  (1) 
nM

>  <Type>  (1) 
IC50

>  <pValue>  (1) 
4.45

>  <Ligand Efficiency>  (1) 
0

>  <Binding Efficiency>  (1) 
0

>  <Surface Efficiency>  (1) 
0

>  <Assay Index>  (1) 
375003

>  <Assay Category>  (1) 


>  <Assay Organism>  (1) 
Homo sapiens

>  <Target ID>  (1) 
11365

>  <Target Name>  (1) 
Cytochrome P450 2D6

>  <Target Organism>  (1) 
Homo sapiens

>  <Target Description>  (1) 
Target is a single protein chain

>  <Sequence Accession>  (1) 
P10635

>  <Reference>  (1) 
J Nat Prod 68 (1), 64-68 (2005)

>  <Pubmed ID>  (1) 
15679319

>  <DOI>  (1) 
10.1021/np0401765

$$$$
