4wnv_ligand_104
     RDKit          2D

 25 28  0  0  0  0  0  0  0  0999 V2000
    0.0000   -0.0000   -0.0000 S   0  0  0  0  0  0  0  0  0  0  0  0
    0.0597   -1.4808   -0.0000 C   0  0  0  0  0  0  0  0  0  0  0  0
   -1.4569    0.3702   -0.0000 C   0  0  0  0  0  0  0  0  0  0  0  0
    1.3494   -2.2212   -0.0000 C   0  0  0  0  0  0  0  0  0  0  0  0
   -1.3614   -2.0301   -0.0000 C   0  0  0  0  0  0  0  0  0  0  0  0
   -2.2928   -0.8837   -0.0000 C   0  0  0  0  0  0  0  0  0  0  0  0
   -2.0062    1.7913   -0.0000 C   0  0  0  0  0  0  0  0  0  0  0  0
    1.3375   -3.7258   -0.0000 C   0  0  0  0  0  0  0  0  0  0  0  0
    2.6153   -1.4569   -0.0000 C   0  0  0  0  0  0  0  0  0  0  0  0
   -3.4870    2.0540   -0.0000 N   0  0  0  0  0  0  0  0  0  0  0  0
    2.6033   -4.4662   -0.0000 N   0  0  0  0  0  0  0  0  0  0  0  0
    3.9169   -2.1973   -0.0000 C   0  0  0  0  0  0  0  0  0  0  0  0
   -4.9797    1.8152   -0.0000 C   0  0  0  0  0  0  0  0  0  0  0  0
    3.9050   -3.7020   -0.0000 C   0  0  0  0  0  0  0  0  0  0  0  0
   -5.5290    0.4180   -0.0000 C   0  0  0  0  0  0  0  0  0  0  0  0
   -6.9859    0.0717   -0.0000 S   0  0  0  0  0  0  0  0  0  0  0  0
   -4.7170   -0.8359   -0.0000 C   0  0  0  0  0  0  0  0  0  0  0  0
   -7.0934   -1.4091   -0.0000 C   0  0  0  0  0  0  0  0  0  0  0  0
   -5.6843   -1.9823   -0.0000 C   0  0  0  0  0  0  0  0  0  0  0  0
   -8.3951   -2.1495   -0.0000 C   0  0  0  0  0  0  0  0  0  0  0  0
   -8.4070   -3.6542   -0.0000 C   0  0  0  0  0  0  0  0  0  0  0  0
   -9.6848   -1.3852   -0.0000 C   0  0  0  0  0  0  0  0  0  0  0  0
   -9.6967   -4.3946   -0.0000 N   0  0  0  0  0  0  0  0  0  0  0  0
  -10.9984   -2.1256   -0.0000 C   0  0  0  0  0  0  0  0  0  0  0  0
  -11.0103   -3.6303   -0.0000 C   0  0  0  0  0  0  0  0  0  0  0  0
  1  2  1  0
  1  3  1  0
  2  4  1  0
  2  5  2  0
  3  6  2  0
  3  7  1  0
  4  8  2  0
  4  9  1  0
  7 10  1  0
  8 11  1  0
  9 12  2  0
 10 13  1  0
 11 14  2  0
 13 15  1  0
 15 16  1  0
 15 17  2  0
 16 18  1  0
 17 19  1  0
 18 20  1  0
 20 21  2  0
 20 22  1  0
 21 23  1  0
 22 24  2  0
 23 25  2  0
  5  6  1  0
 12 14  1  0
 18 19  2  0
 24 25  1  0
M  END
>  <MolRegNo>  (1) 
299634

>  <m>  (1) 
=

>  <Value>  (1) 
12900

>  <Unit>  (1) 
nM

>  <Type>  (1) 
IC50

>  <pValue>  (1) 
4.89

>  <Ligand Efficiency>  (1) 
0

>  <Binding Efficiency>  (1) 
0

>  <Surface Efficiency>  (1) 
0

>  <Assay Index>  (1) 
238570

>  <Assay Category>  (1) 


>  <Assay Organism>  (1) 
Homo sapiens

>  <Target ID>  (1) 
11365

>  <Target Name>  (1) 
Cytochrome P450 2D6

>  <Target Organism>  (1) 
Homo sapiens

>  <Target Description>  (1) 
Target is a single protein chain

>  <Sequence Accession>  (1) 
P10635

>  <Reference>  (1) 
J Med Chem 48 (1), 224-239 (2005)

>  <Pubmed ID>  (1) 
15634016

>  <DOI>  (1) 
10.1021/jm049696n

$$$$
