4wnv_ligand_982
     RDKit          2D

 22 24  0  0  0  0  0  0  0  0999 V2000
    0.0000   -0.0000   -0.0000 N   0  0  0  0  0  0  0  0  0  0  0  0
   -0.0118    1.5019   -0.0000 C   0  0  0  0  0  0  0  0  0  0  0  0
   -1.3008   -0.7332   -0.0000 C   0  0  0  0  0  0  0  0  0  0  0  0
   -1.3008    2.2705   -0.0000 C   0  0  0  0  0  0  0  0  0  0  0  0
    1.2772    2.2469   -0.0000 C   0  0  0  0  0  0  0  0  0  0  0  0
   -2.6135    0.0355   -0.0000 C   0  0  0  0  0  0  0  0  0  0  0  0
   -1.3126   -2.2114   -0.0000 C   0  0  0  0  0  0  0  0  0  0  0  0
   -2.6135    1.5492   -0.0000 N   0  0  0  0  0  0  0  0  0  0  0  0
    0.8041    3.6778   -0.0000 C   0  0  0  0  0  0  0  0  0  0  0  0
   -0.6386    4.1508   -0.0000 C   0  0  0  0  0  0  0  0  0  0  0  0
    1.6792    4.9076   -0.0000 C   0  0  0  0  0  0  0  0  0  0  0  0
   -0.6504    5.6645   -0.0000 C   0  0  0  0  0  0  0  0  0  0  0  0
   -1.9394    3.4176   -0.0000 C   0  0  0  0  0  0  0  0  0  0  0  0
    0.7805    6.1375   -0.0000 C   0  0  0  0  0  0  0  0  0  0  0  0
    3.1574    4.9194   -0.0000 C   0  0  0  0  0  0  0  0  0  0  0  0
   -1.9512    6.4213   -0.0000 C   0  0  0  0  0  0  0  0  0  0  0  0
   -3.2402    4.1744   -0.0000 C   0  0  0  0  0  0  0  0  0  0  0  0
    3.8906    6.2203   -0.0000 C   0  0  0  0  0  0  0  0  0  0  0  0
   -3.2520    5.6881   -0.0000 C   0  0  0  0  0  0  0  0  0  0  0  0
    5.3688    6.2321   -0.0000 N   0  0  0  0  0  0  0  0  0  0  0  0
    6.1020    7.5329   -0.0000 C   0  0  0  0  0  0  0  0  0  0  0  0
    6.1020    4.9549   -0.0000 C   0  0  0  0  0  0  0  0  0  0  0  0
  1  2  2  0
  1  3  1  0
  2  4  1  0
  2  5  1  0
  3  6  2  0
  3  7  1  0
  4  8  2  0
  5  9  1  0
  9 10  1  0
  9 11  2  0
 10 12  2  0
 10 13  1  0
 11 14  1  0
 11 15  1  0
 12 16  1  0
 13 17  2  0
 15 18  1  0
 16 19  2  0
 18 20  1  0
 20 21  1  0
 20 22  1  0
  6  8  1  0
 12 14  1  0
 17 19  1  0
M  END
>  <MolRegNo>  (1) 
620891

>  <m>  (1) 
=

>  <Value>  (1) 
6000

>  <Unit>  (1) 
nM

>  <Type>  (1) 
IC50

>  <pValue>  (1) 
5.22

>  <Ligand Efficiency>  (1) 
0

>  <Binding Efficiency>  (1) 
0

>  <Surface Efficiency>  (1) 
0

>  <Assay Index>  (1) 
470598

>  <Assay Category>  (1) 


>  <Assay Organism>  (1) 


>  <Target ID>  (1) 
11365

>  <Target Name>  (1) 
Cytochrome P450 2D6

>  <Target Organism>  (1) 
Homo sapiens

>  <Target Description>  (1) 
Target is a single protein chain

>  <Sequence Accession>  (1) 
P10635

>  <Reference>  (1) 
Bioorg Med Chem Lett 20 (8), 2629-2633 (2010)

>  <Pubmed ID>  (1) 
20227880

>  <DOI>  (1) 
10.1016/j.bmcl.2010.02.055

$$$$
