4wnv_ligand_744
     RDKit          2D

 21 23  0  0  0  0  0  0  0  0999 V2000
    0.0000   -0.0000   -0.0000 Cl  0  0  0  0  0  0  0  0  0  0  0  0
    1.0005   -1.0958   -0.0000 C   0  0  0  0  0  0  0  0  0  0  0  0
    0.5360   -2.5131   -0.0000 C   0  0  0  0  0  0  0  0  0  0  0  0
    2.4536   -0.7623   -0.0000 C   0  0  0  0  0  0  0  0  0  0  0  0
   -0.9409   -2.8109   -0.0000 O   0  0  0  0  0  0  0  0  0  0  0  0
    1.5245   -3.6208   -0.0000 C   0  0  0  0  0  0  0  0  0  0  0  0
    3.4541   -1.8700   -0.0000 C   0  0  0  0  0  0  0  0  0  0  0  0
   -1.4174   -4.2282   -0.0000 C   0  0  0  0  0  0  0  0  0  0  0  0
    2.9776   -3.2992   -0.0000 C   0  0  0  0  0  0  0  0  0  0  0  0
   -2.8704   -4.6808   -0.0000 C   0  0  0  0  0  0  0  0  0  0  0  0
   -0.5360   -5.4431   -0.0000 C   0  0  0  0  0  0  0  0  0  0  0  0
   -2.8823   -6.1816   -0.0000 C   0  0  0  0  0  0  0  0  0  0  0  0
   -4.1806   -3.9186   -0.0000 C   0  0  0  0  0  0  0  0  0  0  0  0
    0.5122   -4.3593   -0.0000 O   0  0  0  0  0  0  0  0  0  0  0  0
   -1.4412   -6.6580   -0.0000 C   0  0  0  0  0  0  0  0  0  0  0  0
    0.7504   -6.1816   -0.0000 C   0  0  0  0  0  0  0  0  0  0  0  0
   -4.1925   -6.9200   -0.0000 C   0  0  0  0  0  0  0  0  0  0  0  0
   -5.4907   -4.6570   -0.0000 C   0  0  0  0  0  0  0  0  0  0  0  0
    0.7385   -7.6704   -0.0000 N   0  0  0  0  0  0  0  0  0  0  0  0
   -5.5027   -6.1577   -0.0000 C   0  0  0  0  0  0  0  0  0  0  0  0
    2.0248   -8.4088   -0.0000 C   0  0  0  0  0  0  0  0  0  0  0  0
  1  2  1  0
  2  3  2  0
  2  4  1  0
  3  5  1  0
  3  6  1  0
  4  7  2  0
  8  5  1  6
  6  9  2  0
  8 10  1  0
  8 11  1  0
 10 12  2  0
 10 13  1  0
 11 14  1  1
 11 15  1  0
 11 16  1  0
 12 17  1  0
 13 18  2  0
 16 19  1  0
 17 20  2  0
 19 21  1  0
  7  9  1  0
 12 15  1  0
 18 20  1  0
M  END
>  <MolRegNo>  (1) 
452288

>  <m>  (1) 
=

>  <Value>  (1) 
2000

>  <Unit>  (1) 
nM

>  <Type>  (1) 
IC50

>  <pValue>  (1) 
5.7

>  <Ligand Efficiency>  (1) 
0

>  <Binding Efficiency>  (1) 
0

>  <Surface Efficiency>  (1) 
0

>  <Assay Index>  (1) 
407281

>  <Assay Category>  (1) 


>  <Assay Organism>  (1) 


>  <Target ID>  (1) 
11365

>  <Target Name>  (1) 
Cytochrome P450 2D6

>  <Target Organism>  (1) 
Homo sapiens

>  <Target Description>  (1) 
Target is a single protein chain

>  <Sequence Accession>  (1) 
P10635

>  <Reference>  (1) 
Bioorg Med Chem Lett 18 (23), 6151-6155 (2008)

>  <Pubmed ID>  (1) 
18954981

>  <DOI>  (1) 
10.1016/j.bmcl.2008.10.013

$$$$
