4wnv_ligand_568
     RDKit          2D

 20 22  0  0  0  0  0  0  0  0999 V2000
    0.0000   -0.0000   -0.0000 O   0  0  0  0  0  0  0  0  0  0  0  0
   -0.0118    1.5123   -0.0000 C   0  0  0  0  0  0  0  0  0  0  0  0
   -1.3114   -0.7325   -0.0000 C   0  0  0  0  0  0  0  0  0  0  0  0
   -1.3233    2.2803   -0.0000 C   0  0  0  0  0  0  0  0  0  0  0  0
    1.2760    2.2685   -0.0000 C   0  0  0  0  0  0  0  0  0  0  0  0
   -2.6111    0.0236   -0.0000 C   0  0  0  0  0  0  0  0  0  0  0  0
   -1.3351    3.7808   -0.0000 O   0  0  0  0  0  0  0  0  0  0  0  0
   -2.6229    1.5359   -0.0000 C   0  0  0  0  0  0  0  0  0  0  0  0
    2.5520    1.5359   -0.0000 N   0  0  0  0  0  0  0  0  0  0  0  0
   -3.9107   -0.7207   -0.0000 C   0  0  0  0  0  0  0  0  0  0  0  0
   -0.0473    4.5369   -0.0000 C   0  0  0  0  0  0  0  0  0  0  0  0
   -3.9343    2.2921   -0.0000 C   0  0  0  0  0  0  0  0  0  0  0  0
   -5.2222    0.0354   -0.0000 C   0  0  0  0  0  0  0  0  0  0  0  0
   -0.0709    6.0374   -0.0000 C   0  0  0  0  0  0  0  0  0  0  0  0
    1.2287    3.7926   -0.0000 C   0  0  0  0  0  0  0  0  0  0  0  0
   -5.2340    1.5596   -0.0000 C   0  0  0  0  0  0  0  0  0  0  0  0
    1.2051    6.7935   -0.0000 C   0  0  0  0  0  0  0  0  0  0  0  0
   -1.3823    6.7935   -0.0000 C   0  0  0  0  0  0  0  0  0  0  0  0
    2.5047    4.5487   -0.0000 C   0  0  0  0  0  0  0  0  0  0  0  0
    2.4929    6.0610   -0.0000 C   0  0  0  0  0  0  0  0  0  0  0  0
  1  2  1  0
  1  3  1  0
  2  4  1  0
  2  5  1  1
  3  6  1  0
  4  7  1  1
  4  8  1  0
  5  9  1  0
  6 10  2  0
  7 11  1  0
  8 12  2  0
 10 13  1  0
 11 14  2  0
 11 15  1  0
 12 16  1  0
 14 17  1  0
 14 18  1  0
 15 19  2  0
 17 20  2  0
  6  8  1  0
 13 16  2  0
 19 20  1  0
M  END
>  <MolRegNo>  (1) 
511340

>  <m>  (1) 
=

>  <Value>  (1) 
12000

>  <Unit>  (1) 
nM

>  <Type>  (1) 
IC50

>  <pValue>  (1) 
4.92

>  <Ligand Efficiency>  (1) 
0

>  <Binding Efficiency>  (1) 
0

>  <Surface Efficiency>  (1) 
0

>  <Assay Index>  (1) 
358939

>  <Assay Category>  (1) 


>  <Assay Organism>  (1) 


>  <Target ID>  (1) 
11365

>  <Target Name>  (1) 
Cytochrome P450 2D6

>  <Target Organism>  (1) 
Homo sapiens

>  <Target Description>  (1) 
Target is a single protein chain

>  <Sequence Accession>  (1) 
P10635

>  <Reference>  (1) 
Bioorg Med Chem Lett 18 (16), 4491-4494 (2008)

>  <Pubmed ID>  (1) 
18672364

>  <DOI>  (1) 
10.1016/j.bmcl.2008.07.049

$$$$
