4wnv_ligand_435
     RDKit          2D

 38 41  0  0  1  0  0  0  0  0999 V2000
    0.0000   -0.0000   -0.0000 S   0  0  0  0  0  0  0  0  0  0  0  0
    1.2049    0.8947   -0.0000 C   0  0  0  0  0  0  0  0  0  0  0  0
    0.4533   -1.4196   -0.0000 C   0  0  0  0  0  0  0  0  0  0  0  0
    2.4098    0.0239   -0.0000 N   0  0  0  0  0  0  0  0  0  0  0  0
    1.1930    2.4098   -0.0000 N   0  0  0  0  0  0  0  0  0  0  0  0
    1.9445   -1.4077   -0.0000 C   0  0  0  0  0  0  0  0  0  0  0  0
   -0.3340   -2.6841   -0.0000 C   0  0  0  0  0  0  0  0  0  0  0  0
   -0.1193    3.1852   -0.0000 C   0  0  0  0  0  0  0  0  0  0  0  0
    2.8154   -2.6006   -0.0000 C   0  0  0  0  0  0  0  0  0  0  0  0
   -1.8491   -2.6484   -0.0000 O   0  0  0  0  0  0  0  0  0  0  0  0
    0.3817   -3.9845   -0.0000 C   0  0  0  0  0  0  0  0  0  0  0  0
   -1.4315    2.4456   -0.0000 O   0  0  0  0  0  0  0  0  0  0  0  0
   -0.1312    4.7002   -0.0000 N   0  0  0  0  0  0  0  0  0  0  0  0
   -1.4435    5.4637   -0.0000 C   0  0  0  0  0  0  0  0  0  0  0  0
   -1.4554    6.9788   -0.0000 C   0  0  0  0  0  0  0  0  0  0  0  0
   -2.7557    4.7360   -0.0000 C   0  0  0  0  0  0  0  0  0  0  0  0
   -2.7677    7.7542   -0.0000 C   0  0  0  0  0  0  0  0  0  0  0  0
   -0.1551    7.7423   -0.0000 C   0  0  0  0  0  0  0  0  0  0  0  0
   -4.0680    5.4876   -0.0000 N   0  0  0  0  0  0  0  0  0  0  0  0
   -4.0799    7.0026   -0.0000 C   0  0  0  0  0  0  0  0  0  0  0  0
    1.1333    6.9907   -0.0000 N   0  0  0  0  0  0  0  0  0  0  0  0
   -5.3802    4.7599   -0.0000 C   0  0  0  0  0  0  0  0  0  0  0  0
    2.4217    7.7542   -0.0000 C   0  0  0  0  0  0  0  0  0  0  0  0
    1.1214    5.4876   -0.0000 C   0  0  0  0  0  0  0  0  0  0  0  0
   -5.3922    3.2687   -0.0000 O   0  0  0  0  0  0  0  0  0  0  0  0
   -6.6805    5.5234   -0.0000 C   0  0  0  0  0  0  0  0  0  0  0  0
    3.7101    7.0026   -0.0000 C   0  0  0  0  0  0  0  0  0  0  0  0
    2.4098    4.7480   -0.0000 C   0  0  0  0  0  0  0  0  0  0  0  0
   -7.9928    4.7957   -0.0000 C   0  0  0  0  0  0  0  0  0  0  0  0
    3.6862    5.5114   -0.0000 C   0  0  0  0  0  0  0  0  0  0  0  0
    5.0104    7.7661   -0.0000 C   0  0  0  0  0  0  0  0  0  0  0  0
    6.2988    7.0146   -0.0000 C   0  0  0  0  0  0  0  0  0  0  0  0
    6.2630    5.5234   -0.0000 C   0  0  0  0  0  0  0  0  0  0  0  0
    7.5872    7.7781   -0.0000 C   0  0  0  0  0  0  0  0  0  0  0  0
    7.5514    4.7837   -0.0000 C   0  0  0  0  0  0  0  0  0  0  0  0
    8.8756    7.0265   -0.0000 C   0  0  0  0  0  0  0  0  0  0  0  0
    8.8517    5.5353   -0.0000 C   0  0  0  0  0  0  0  0  0  0  0  0
   10.1401    4.7957   -0.0000 F   0  0  0  0  0  0  0  0  0  0  0  0
  1  2  1  0
  1  3  1  0
  2  4  2  0
  2  5  1  0
  3  6  2  0
  3  7  1  0
  5  8  1  0
  6  9  1  0
  7 10  2  0
  7 11  1  0
  8 12  2  0
  8 13  1  0
 14 13  1  6
 14 15  1  0
 14 16  1  0
 15 17  1  0
 15 18  1  1
 16 19  1  0
 17 20  1  0
 18 21  1  0
 19 22  1  0
 21 23  1  0
 21 24  1  0
 22 25  2  0
 22 26  1  0
 23 27  1  0
 24 28  1  0
 26 29  1  0
 27 30  1  0
 27 31  1  6
 31 32  1  0
 32 33  2  0
 32 34  1  0
 33 35  1  0
 34 36  2  0
 35 37  2  0
 37 38  1  0
  4  6  1  0
 19 20  1  0
 28 30  1  0
 36 37  1  0
M  END
>  <MolRegNo>  (1) 
421509

>  <m>  (1) 
=

>  <Value>  (1) 
1500

>  <Unit>  (1) 
nM

>  <Type>  (1) 
IC50

>  <pValue>  (1) 
5.82

>  <Ligand Efficiency>  (1) 
0

>  <Binding Efficiency>  (1) 
0

>  <Surface Efficiency>  (1) 
0

>  <Assay Index>  (1) 
307824

>  <Assay Category>  (1) 


>  <Assay Organism>  (1) 
Homo sapiens

>  <Target ID>  (1) 
11365

>  <Target Name>  (1) 
Cytochrome P450 2D6

>  <Target Organism>  (1) 
Homo sapiens

>  <Target Description>  (1) 
Target is a single protein chain

>  <Sequence Accession>  (1) 
P10635

>  <Reference>  (1) 
Bioorg Med Chem Lett 17 (11), 2992-2997 (2007)

>  <Pubmed ID>  (1) 
17418570

>  <DOI>  (1) 
10.1016/j.bmcl.2007.03.065

$$$$
