4wnv_ligand_313
     RDKit          2D

 25 27  0  0  0  0  0  0  0  0999 V2000
    0.0000   -0.0000   -0.0000 O   0  0  0  0  0  0  0  0  0  0  0  0
    0.0000   -1.4943   -0.0000 C   0  0  0  0  0  0  0  0  0  0  0  0
   -1.3046   -2.2534   -0.0000 N   0  0  0  0  0  0  0  0  0  0  0  0
    1.3046   -2.2178   -0.0000 N   0  0  0  0  0  0  0  0  0  0  0  0
   -2.6329   -1.5062   -0.0000 C   0  0  0  0  0  0  0  0  0  0  0  0
   -1.3046   -3.7477   -0.0000 C   0  0  0  0  0  0  0  0  0  0  0  0
    1.3046   -3.7121   -0.0000 C   0  0  0  0  0  0  0  0  0  0  0  0
    2.5854   -1.4350   -0.0000 C   0  0  0  0  0  0  0  0  0  0  0  0
   -3.9375   -2.2534   -0.0000 C   0  0  0  0  0  0  0  0  0  0  0  0
   -2.6210   -4.4949   -0.0000 C   0  0  0  0  0  0  0  0  0  0  0  0
    2.5973   -4.4356   -0.0000 C   0  0  0  0  0  0  0  0  0  0  0  0
    3.8900   -2.1703   -0.0000 C   0  0  0  0  0  0  0  0  0  0  0  0
   -3.9375   -3.7477   -0.0000 N   0  0  0  0  0  0  0  0  0  0  0  0
    3.8900   -3.6647   -0.0000 C   0  0  0  0  0  0  0  0  0  0  0  0
   -5.2420   -4.4949   -0.0000 C   0  0  0  0  0  0  0  0  0  0  0  0
    5.1827   -4.4000   -0.0000 N   0  0  0  0  0  0  0  0  0  0  0  0
   -6.5585   -3.7358   -0.0000 C   0  0  0  0  0  0  0  0  0  0  0  0
   -5.2420   -5.9892   -0.0000 C   0  0  0  0  0  0  0  0  0  0  0  0
    6.4636   -3.6291   -0.0000 C   0  0  0  0  0  0  0  0  0  0  0  0
    6.4399   -2.1110   -0.0000 O   0  0  0  0  0  0  0  0  0  0  0  0
    7.7563   -4.3644   -0.0000 C   0  0  0  0  0  0  0  0  0  0  0  0
    7.9224   -5.8469   -0.0000 C   0  0  0  0  0  0  0  0  0  0  0  0
    9.1202   -3.7240   -0.0000 C   0  0  0  0  0  0  0  0  0  0  0  0
    9.3811   -6.1315   -0.0000 C   0  0  0  0  0  0  0  0  0  0  0  0
   10.1283   -4.8269   -0.0000 C   0  0  0  0  0  0  0  0  0  0  0  0
  1  2  2  0
  2  3  1  0
  2  4  1  0
  3  5  1  0
  3  6  1  0
  4  7  1  0
  4  8  1  0
  5  9  1  0
  6 10  1  0
  7 11  1  0
  8 12  1  0
  9 13  1  0
 11 14  1  0
 13 15  1  0
 14 16  1  0
 15 17  1  0
 15 18  1  0
 16 19  1  0
 19 20  2  0
 19 21  1  0
 21 22  1  0
 21 23  1  0
 22 24  1  0
 23 25  1  0
 10 13  1  0
 12 14  1  0
 24 25  1  0
M  END
>  <MolRegNo>  (1) 
364073

>  <m>  (1) 
=

>  <Value>  (1) 
17000

>  <Unit>  (1) 
nM

>  <Type>  (1) 
IC50

>  <pValue>  (1) 
4.77

>  <Ligand Efficiency>  (1) 
0

>  <Binding Efficiency>  (1) 
0

>  <Surface Efficiency>  (1) 
0

>  <Assay Index>  (1) 
271045

>  <Assay Category>  (1) 


>  <Assay Organism>  (1) 
Homo sapiens

>  <Target ID>  (1) 
11365

>  <Target Name>  (1) 
Cytochrome P450 2D6

>  <Target Organism>  (1) 
Homo sapiens

>  <Target Description>  (1) 
Target is a single protein chain

>  <Sequence Accession>  (1) 
P10635

>  <Reference>  (1) 
Bioorg Med Chem Lett 16 (20), 5303-5308 (2006)

>  <Pubmed ID>  (1) 
16908150

>  <DOI>  (1) 
10.1016/j.bmcl.2006.07.093

$$$$
