4wnv_ligand_72
     RDKit          2D

 25 27  0  0  0  0  0  0  0  0999 V2000
    0.0000   -0.0000   -0.0000 O   0  0  0  0  0  0  0  0  0  0  0  0
    0.0000   -1.4949   -0.0000 C   0  0  0  0  0  0  0  0  0  0  0  0
   -1.3155   -2.2363   -0.0000 O   0  0  0  0  0  0  0  0  0  0  0  0
    1.2916   -2.2244   -0.0000 N   0  0  0  0  0  0  0  0  0  0  0  0
   -2.6310   -1.4829   -0.0000 C   0  0  0  0  0  0  0  0  0  0  0  0
    2.5831   -1.4470   -0.0000 C   0  0  0  0  0  0  0  0  0  0  0  0
    1.3035   -3.7192   -0.0000 C   0  0  0  0  0  0  0  0  0  0  0  0
   -3.9464   -2.2363   -0.0000 C   0  0  0  0  0  0  0  0  0  0  0  0
    3.8747   -2.1646   -0.0000 C   0  0  0  0  0  0  0  0  0  0  0  0
    2.5951   -4.4487   -0.0000 C   0  0  0  0  0  0  0  0  0  0  0  0
    3.8866   -3.6714   -0.0000 N   0  0  0  0  0  0  0  0  0  0  0  0
    5.1782   -4.4009   -0.0000 C   0  0  0  0  0  0  0  0  0  0  0  0
    6.4698   -3.6116   -0.0000 C   0  0  0  0  0  0  0  0  0  0  0  0
    7.7733   -4.3291   -0.0000 O   0  0  0  0  0  0  0  0  0  0  0  0
    9.0409   -3.5398   -0.0000 C   0  0  0  0  0  0  0  0  0  0  0  0
    9.0051   -2.0211   -0.0000 C   0  0  0  0  0  0  0  0  0  0  0  0
   10.3444   -4.2693   -0.0000 C   0  0  0  0  0  0  0  0  0  0  0  0
   10.2966   -1.2437   -0.0000 C   0  0  0  0  0  0  0  0  0  0  0  0
   11.6241   -3.4202   -0.0000 C   0  0  0  0  0  0  0  0  0  0  0  0
   11.6001   -1.9732   -0.0000 C   0  0  0  0  0  0  0  0  0  0  0  0
   12.8678   -1.1839   -0.0000 N   0  0  0  0  0  0  0  0  0  0  0  0
   12.9874    0.3348   -0.0000 C   0  0  0  0  0  0  0  0  0  0  0  0
   14.2430   -1.7699   -0.0000 C   0  0  0  0  0  0  0  0  0  0  0  0
   14.4464    0.6697   -0.0000 N   0  0  0  0  0  0  0  0  0  0  0  0
   15.2237   -0.6338   -0.0000 C   0  0  0  0  0  0  0  0  0  0  0  0
  1  2  2  0
  2  3  1  0
  2  4  1  0
  3  5  1  0
  4  6  1  0
  4  7  1  0
  5  8  1  0
  6  9  1  0
  7 10  1  0
  9 11  1  0
 11 12  1  0
 12 13  1  0
 13 14  1  0
 14 15  1  0
 15 16  2  0
 15 17  1  0
 16 18  1  0
 17 19  2  0
 18 20  2  0
 20 21  1  0
 21 22  1  0
 21 23  1  0
 22 24  2  0
 23 25  2  0
 10 11  1  0
 19 20  1  0
 24 25  1  0
M  END
>  <MolRegNo>  (1) 
186402

>  <m>  (1) 
=

>  <Value>  (1) 
3200

>  <Unit>  (1) 
nM

>  <Type>  (1) 
IC50

>  <pValue>  (1) 
5.5

>  <Ligand Efficiency>  (1) 
0

>  <Binding Efficiency>  (1) 
0

>  <Surface Efficiency>  (1) 
0

>  <Assay Index>  (1) 
51639

>  <Assay Category>  (1) 


>  <Assay Organism>  (1) 
Homo sapiens

>  <Target ID>  (1) 
11365

>  <Target Name>  (1) 
Cytochrome P450 2D6

>  <Target Organism>  (1) 
Homo sapiens

>  <Target Description>  (1) 
Target is a single protein chain

>  <Sequence Accession>  (1) 
P10635

>  <Reference>  (1) 
Bioorg Med Chem Lett 14 (2), 333-336 (2004)

>  <Pubmed ID>  (1) 
14698153

>  <DOI>  (1) 
10.1016/j.bmcl.2003.11.005

$$$$
