4wnv_ligand_592
     RDKit          2D

 25 27  0  0  0  0  0  0  0  0999 V2000
    0.0000   -0.0000   -0.0000 Cl  0  0  0  0  0  0  0  0  0  0  0  0
    1.2878    0.7632   -0.0000 C   0  0  0  0  0  0  0  0  0  0  0  0
    2.5757    0.0238   -0.0000 C   0  0  0  0  0  0  0  0  0  0  0  0
    1.2759    2.2895   -0.0000 C   0  0  0  0  0  0  0  0  0  0  0  0
    3.8635    0.7989   -0.0000 C   0  0  0  0  0  0  0  0  0  0  0  0
    2.5637    3.0526   -0.0000 C   0  0  0  0  0  0  0  0  0  0  0  0
    5.1513    0.0596   -0.0000 N   0  0  0  0  0  0  0  0  0  0  0  0
    3.8516    2.3253   -0.0000 C   0  0  0  0  0  0  0  0  0  0  0  0
    6.4392    0.8228   -0.0000 C   0  0  0  0  0  0  0  0  0  0  0  0
    5.1394    3.0884   -0.0000 C   0  0  0  0  0  0  0  0  0  0  0  0
    6.4153    2.3491   -0.0000 C   0  0  0  0  0  0  0  0  0  0  0  0
    5.1156    4.6028   -0.0000 N   0  0  0  0  0  0  0  0  0  0  0  0
    6.4034    5.3779   -0.0000 C   0  0  0  0  0  0  0  0  0  0  0  0
    7.6912    4.6505   -0.0000 C   0  0  0  0  0  0  0  0  0  0  0  0
    6.3796    6.8923   -0.0000 C   0  0  0  0  0  0  0  0  0  0  0  0
    8.9791    5.4256   -0.0000 C   0  0  0  0  0  0  0  0  0  0  0  0
    7.6555    7.6674   -0.0000 C   0  0  0  0  0  0  0  0  0  0  0  0
    8.9552    6.9519   -0.0000 C   0  0  0  0  0  0  0  0  0  0  0  0
   10.2788    4.6863   -0.0000 C   0  0  0  0  0  0  0  0  0  0  0  0
   10.2431    7.7270   -0.0000 F   0  0  0  0  0  0  0  0  0  0  0  0
   11.5667    5.4614   -0.0000 N   0  0  0  0  0  0  0  0  0  0  0  0
   12.8664    4.7221   -0.0000 C   0  0  0  0  0  0  0  0  0  0  0  0
   14.1543    3.9827   -0.0000 C   0  0  0  0  0  0  0  0  0  0  0  0
   13.6057    6.0337   -0.0000 C   0  0  0  0  0  0  0  0  0  0  0  0
   12.1152    3.4223   -0.0000 C   0  0  0  0  0  0  0  0  0  0  0  0
  1  2  1  0
  2  3  2  0
  2  4  1  0
  3  5  1  0
  4  6  2  0
  5  7  2  0
  5  8  1  0
  7  9  1  0
  8 10  2  0
  9 11  2  0
 10 12  1  0
 12 13  1  0
 13 14  2  0
 13 15  1  0
 14 16  1  0
 15 17  2  0
 16 18  2  0
 16 19  1  0
 18 20  1  0
 19 21  1  0
 21 22  1  0
 22 23  1  0
 22 24  1  0
 22 25  1  0
  6  8  1  0
 10 11  1  0
 17 18  1  0
M  END
>  <MolRegNo>  (1) 
456053

>  <m>  (1) 
=

>  <Value>  (1) 
300

>  <Unit>  (1) 
nM

>  <Type>  (1) 
IC50

>  <pValue>  (1) 
6.52

>  <Ligand Efficiency>  (1) 
0

>  <Binding Efficiency>  (1) 
0

>  <Surface Efficiency>  (1) 
0

>  <Assay Index>  (1) 
416042

>  <Assay Category>  (1) 


>  <Assay Organism>  (1) 
Homo sapiens

>  <Target ID>  (1) 
11365

>  <Target Name>  (1) 
Cytochrome P450 2D6

>  <Target Organism>  (1) 
Homo sapiens

>  <Target Description>  (1) 
Target is a single protein chain

>  <Sequence Accession>  (1) 
P10635

>  <Reference>  (1) 
J Med Chem 52 (7), 1828-1844 (2009)

>  <Pubmed ID>  (1) 
19284751

>  <DOI>  (1) 
10.1021/jm8012757

$$$$
