4wnv_ligand_520
     RDKit          2D

 34 37  0  0  1  0  0  0  0  0999 V2000
    0.0000   -0.0000   -0.0000 F   0  0  0  0  0  0  0  0  0  0  0  0
    1.2934   -0.7306   -0.0000 C   0  0  0  0  0  0  0  0  0  0  0  0
    1.2815   -2.2276   -0.0000 C   0  0  0  0  0  0  0  0  0  0  0  0
    2.5869    0.0479   -0.0000 C   0  0  0  0  0  0  0  0  0  0  0  0
    2.5869   -2.9701   -0.0000 C   0  0  0  0  0  0  0  0  0  0  0  0
    3.8923   -0.6946   -0.0000 C   0  0  0  0  0  0  0  0  0  0  0  0
    3.8803   -2.1797   -0.0000 C   0  0  0  0  0  0  0  0  0  0  0  0
    5.1738   -2.9342   -0.0000 C   0  0  0  0  0  0  0  0  0  0  0  0
    6.4672   -2.1677   -0.0000 C   0  0  0  0  0  0  0  0  0  0  0  0
    7.7607   -2.9103   -0.0000 C   0  0  0  0  0  0  0  0  0  0  0  0
    6.4553   -0.6467   -0.0000 C   0  0  0  0  0  0  0  0  0  0  0  0
    9.0661   -2.1438   -0.0000 N   0  0  0  0  0  0  0  0  0  0  0  0
    7.7487    0.1317   -0.0000 C   0  0  0  0  0  0  0  0  0  0  0  0
    9.0541   -0.6108   -0.0000 C   0  0  0  0  0  0  0  0  0  0  0  0
   10.3596   -2.8863   -0.0000 C   0  0  0  0  0  0  0  0  0  0  0  0
   11.6530   -2.1198   -0.0000 C   0  0  0  0  0  0  0  0  0  0  0  0
   12.9585   -2.8624   -0.0000 C   0  0  0  0  0  0  0  0  0  0  0  0
   14.2519   -2.0959   -0.0000 N   0  0  0  0  0  0  0  0  0  0  0  0
   15.5453   -2.8384   -0.0000 C   0  0  0  0  0  0  0  0  0  0  0  0
   15.5334   -4.3355   -0.0000 O   0  0  0  0  0  0  0  0  0  0  0  0
   16.8388   -2.0719   -0.0000 N   0  0  0  0  0  0  0  0  0  0  0  0
   18.1442   -2.8384   -0.0000 C   0  0  0  0  0  0  0  0  0  0  0  0
   19.4377   -2.0719   -0.0000 C   0  0  0  0  0  0  0  0  0  0  0  0
   18.1322   -4.3355   -0.0000 C   0  0  0  0  0  0  0  0  0  0  0  0
   20.7311   -2.8145   -0.0000 C   0  0  0  0  0  0  0  0  0  0  0  0
   19.4257   -5.0780   -0.0000 C   0  0  0  0  0  0  0  0  0  0  0  0
   22.0246   -2.0360   -0.0000 C   0  0  0  0  0  0  0  0  0  0  0  0
   20.7191   -4.3115   -0.0000 C   0  0  0  0  0  0  0  0  0  0  0  0
   19.4137   -6.5750   -0.0000 C   0  0  0  0  0  0  0  0  0  0  0  0
   23.1504   -3.0061   -0.0000 N   0  0  0  0  0  0  0  0  0  0  0  0
   22.5515   -0.6467   -0.0000 N   0  0  0  0  0  0  0  0  0  0  0  0
   24.3839   -2.2156   -0.0000 N   0  0  0  0  0  0  0  0  0  0  0  0
   24.0127   -0.7545   -0.0000 N   0  0  0  0  0  0  0  0  0  0  0  0
   21.7252    0.6347   -0.0000 C   0  0  0  0  0  0  0  0  0  0  0  0
  1  2  1  0
  2  3  2  0
  2  4  1  0
  3  5  1  0
  4  6  2  0
  5  7  2  0
  7  8  1  0
  9  8  1  6
  9 10  1  0
  9 11  1  0
 10 12  1  0
 11 13  1  0
 12 14  1  0
 12 15  1  0
 15 16  1  0
 16 17  1  0
 17 18  1  0
 18 19  1  0
 19 20  2  0
 19 21  1  0
 21 22  1  0
 22 23  2  0
 22 24  1  0
 23 25  1  0
 24 26  2  0
 25 27  1  0
 25 28  2  0
 26 29  1  0
 27 30  2  0
 27 31  1  0
 30 32  1  0
 31 33  1  0
 31 34  1  0
  6  7  1  0
 13 14  1  0
 26 28  1  0
 32 33  2  0
M  END
>  <MolRegNo>  (1) 
64754

>  <m>  (1) 
=

>  <Value>  (1) 
14000

>  <Unit>  (1) 
nM

>  <Type>  (1) 
IC50

>  <pValue>  (1) 
4.85

>  <Ligand Efficiency>  (1) 
0

>  <Binding Efficiency>  (1) 
0

>  <Surface Efficiency>  (1) 
0

>  <Assay Index>  (1) 
314783

>  <Assay Category>  (1) 


>  <Assay Organism>  (1) 


>  <Target ID>  (1) 
11365

>  <Target Name>  (1) 
Cytochrome P450 2D6

>  <Target Organism>  (1) 
Homo sapiens

>  <Target Description>  (1) 
Target is a single protein chain

>  <Sequence Accession>  (1) 
P10635

>  <Reference>  (1) 
Bioorg Med Chem Lett 18 (2), 576-585 (2008)

>  <Pubmed ID>  (1) 
18096386

>  <DOI>  (1) 
10.1016/j.bmcl.2007.11.067

$$$$
