4wnv_ligand_56
     RDKit          2D

 19 20  0  0  0  0  0  0  0  0999 V2000
    0.0000   -0.0000   -0.0000 O   0  0  0  0  0  0  0  0  0  0  0  0
   -0.0122    1.5580   -0.0000 C   0  0  0  0  0  0  0  0  0  0  0  0
   -1.3511   -0.7668   -0.0000 C   0  0  0  0  0  0  0  0  0  0  0  0
    1.3145    2.3370   -0.0000 C   0  0  0  0  0  0  0  0  0  0  0  0
   -1.3754    2.3370   -0.0000 C   0  0  0  0  0  0  0  0  0  0  0  0
   -1.3632   -2.3004   -0.0000 C   0  0  0  0  0  0  0  0  0  0  0  0
    1.3024    3.8949   -0.0000 C   0  0  0  0  0  0  0  0  0  0  0  0
    2.6413    1.5823   -0.0000 C   0  0  0  0  0  0  0  0  0  0  0  0
   -1.3876    3.8949   -0.0000 C   0  0  0  0  0  0  0  0  0  0  0  0
   -0.3043   -2.8969   -0.0000 O   0  0  0  0  0  0  0  0  0  0  0  0
   -2.7143   -3.0673   -0.0000 C   0  0  0  0  0  0  0  0  0  0  0  0
   -0.0487    4.6739   -0.0000 C   0  0  0  0  0  0  0  0  0  0  0  0
    2.6291    4.6739   -0.0000 C   0  0  0  0  0  0  0  0  0  0  0  0
    3.9680    2.3613   -0.0000 C   0  0  0  0  0  0  0  0  0  0  0  0
   -2.7265   -4.6009   -0.0000 N   0  0  0  0  0  0  0  0  0  0  0  0
    3.9558    3.9193   -0.0000 C   0  0  0  0  0  0  0  0  0  0  0  0
   -4.0775   -5.3677   -0.0000 C   0  0  0  0  0  0  0  0  0  0  0  0
   -4.0897   -6.5970   -0.0000 C   0  0  0  0  0  0  0  0  0  0  0  0
   -5.1608   -4.7470   -0.0000 C   0  0  0  0  0  0  0  0  0  0  0  0
  1  2  1  0
  1  3  1  0
  2  4  2  0
  2  5  1  0
  3  6  1  0
  4  7  1  0
  4  8  1  0
  5  9  2  0
  6 10  1  1
  6 11  1  0
  7 12  2  0
  7 13  1  0
  8 14  2  0
 11 15  1  0
 13 16  2  0
 15 17  1  0
 17 18  1  0
 17 19  1  0
  9 12  1  0
 14 16  1  0
M  END
>  <MolRegNo>  (1) 
454176

>  <m>  (1) 
=

>  <Value>  (1) 
1400

>  <Unit>  (1) 
nM

>  <Type>  (1) 
IC50

>  <pValue>  (1) 
5.85

>  <Ligand Efficiency>  (1) 
0

>  <Binding Efficiency>  (1) 
0

>  <Surface Efficiency>  (1) 
0

>  <Assay Index>  (1) 
51626

>  <Assay Category>  (1) 


>  <Assay Organism>  (1) 
Homo sapiens

>  <Target ID>  (1) 
11365

>  <Target Name>  (1) 
Cytochrome P450 2D6

>  <Target Organism>  (1) 
Homo sapiens

>  <Target Description>  (1) 
Target is a single protein chain

>  <Sequence Accession>  (1) 
P10635

>  <Reference>  (1) 
J Med Chem 46 (1), 74-86 (2003)

>  <Pubmed ID>  (1) 
12502361

>  <DOI>  (1) 
10.1021/jm0209578

$$$$
