4wnv_ligand_1092
     RDKit          2D

 20 21  0  0  0  0  0  0  0  0999 V2000
    0.0000   -0.0000   -0.0000 Cl  0  0  0  0  0  0  0  0  0  0  0  0
   -1.4545   -0.3902   -0.0000 C   0  0  0  0  0  0  0  0  0  0  0  0
   -1.8329   -1.8329   -0.0000 C   0  0  0  0  0  0  0  0  0  0  0  0
   -2.5306    0.6622   -0.0000 C   0  0  0  0  0  0  0  0  0  0  0  0
   -0.7805   -2.8617   -0.0000 N   0  0  0  0  0  0  0  0  0  0  0  0
   -3.2874   -2.2231   -0.0000 C   0  0  0  0  0  0  0  0  0  0  0  0
   -3.9733    0.2720   -0.0000 C   0  0  0  0  0  0  0  0  0  0  0  0
   -4.3635   -1.1589   -0.0000 C   0  0  0  0  0  0  0  0  0  0  0  0
   -5.0494    1.3363   -0.0000 C   0  0  0  0  0  0  0  0  0  0  0  0
   -4.6828    2.7908   -0.0000 O   0  0  0  0  0  0  0  0  0  0  0  0
   -6.5039    0.9460   -0.0000 C   0  0  0  0  0  0  0  0  0  0  0  0
   -6.4329   -0.5321   -0.0000 N   0  0  0  0  0  0  0  0  0  0  0  0
   -7.9702    1.3363   -0.0000 C   0  0  0  0  0  0  0  0  0  0  0  0
   -6.5275    2.4596   -0.0000 C   0  0  0  0  0  0  0  0  0  0  0  0
   -7.8401   -1.0643   -0.0000 C   0  0  0  0  0  0  0  0  0  0  0  0
   -8.7862    0.0828   -0.0000 C   0  0  0  0  0  0  0  0  0  0  0  0
   -7.8401    3.2046   -0.0000 O   0  0  0  0  0  0  0  0  0  0  0  0
   -7.8638    4.7064   -0.0000 C   0  0  0  0  0  0  0  0  0  0  0  0
   -6.5867    5.4751   -0.0000 C   0  0  0  0  0  0  0  0  0  0  0  0
   -9.1764    5.4514   -0.0000 C   0  0  0  0  0  0  0  0  0  0  0  0
  1  2  1  0
  2  3  2  0
  2  4  1  0
  3  5  1  0
  3  6  1  0
  4  7  2  0
  6  8  2  0
  7  9  1  0
  9 10  2  0
  9 11  1  0
 11 12  1  0
 11 13  1  0
 11 14  1  0
 12 15  1  0
 13 16  1  0
 14 17  1  0
 17 18  1  0
 18 19  1  0
 18 20  1  0
  7  8  1  0
 15 16  1  0
M  END
>  <MolRegNo>  (1) 
690544

>  <m>  (1) 
=

>  <Value>  (1) 
14000

>  <Unit>  (1) 
nM

>  <Type>  (1) 
IC50

>  <pValue>  (1) 
4.85

>  <Ligand Efficiency>  (1) 
0

>  <Binding Efficiency>  (1) 
0

>  <Surface Efficiency>  (1) 
0

>  <Assay Index>  (1) 
497257

>  <Assay Category>  (1) 


>  <Assay Organism>  (1) 


>  <Target ID>  (1) 
11365

>  <Target Name>  (1) 
Cytochrome P450 2D6

>  <Target Organism>  (1) 
Homo sapiens

>  <Target Description>  (1) 
Target is a single protein chain

>  <Sequence Accession>  (1) 
P10635

>  <Reference>  (1) 
Bioorg Med Chem Lett 20 (18), 5559-5566 (2010)

>  <Pubmed ID>  (1) 
20691589

>  <DOI>  (1) 
10.1016/j.bmcl.2010.07.020

$$$$
