4wnv_ligand_666
     RDKit          2D

 36 41  0  0  1  0  0  0  0  0999 V2000
    0.0000   -0.0000   -0.0000 F   0  0  0  0  0  0  0  0  0  0  0  0
   -0.0126   -1.5011   -0.0000 C   0  0  0  0  0  0  0  0  0  0  0  0
   -1.3371   -2.2454   -0.0000 C   0  0  0  0  0  0  0  0  0  0  0  0
    1.2867   -2.2454   -0.0000 C   0  0  0  0  0  0  0  0  0  0  0  0
   -1.3497   -3.7465   -0.0000 C   0  0  0  0  0  0  0  0  0  0  0  0
    1.2741   -3.7465   -0.0000 C   0  0  0  0  0  0  0  0  0  0  0  0
   -0.0505   -4.4908   -0.0000 C   0  0  0  0  0  0  0  0  0  0  0  0
   -2.6743   -4.4908   -0.0000 C   0  0  0  0  0  0  0  0  0  0  0  0
   -0.0631   -5.9919   -0.0000 C   0  0  0  0  0  0  0  0  0  0  0  0
   -2.6869   -5.9919   -0.0000 C   0  0  0  0  0  0  0  0  0  0  0  0
   -1.3876   -6.7361   -0.0000 C   0  0  0  0  0  0  0  0  0  0  0  0
   -1.4002   -8.2373   -0.0000 C   0  0  0  0  0  0  0  0  0  0  0  0
   -0.1009   -8.9815   -0.0000 N   0  0  0  0  0  0  0  0  0  0  0  0
    0.8326  -10.1420   -0.0000 C   0  0  0  0  0  0  0  0  0  0  0  0
    1.1731   -9.1707   -0.0000 C   0  0  0  0  0  0  0  0  0  0  0  0
    2.3715   -9.2590   -0.0000 C   0  0  0  0  0  0  0  0  0  0  0  0
    0.6307  -11.7315   -0.0000 C   0  0  0  0  0  0  0  0  0  0  0  0
    2.6364   -8.3003   -0.0000 C   0  0  0  0  0  0  0  0  0  0  0  0
    1.2867  -10.5709   -0.0000 C   0  0  0  0  0  0  0  0  0  0  0  0
    3.5699   -9.4735   -0.0000 C   0  0  0  0  0  0  0  0  0  0  0  0
    4.8566  -10.2303   -0.0000 N   0  0  0  0  0  0  0  0  0  0  0  0
    6.1685   -9.4861   -0.0000 C   0  0  0  0  0  0  0  0  0  0  0  0
    6.1811   -7.9597   -0.0000 O   0  0  0  0  0  0  0  0  0  0  0  0
    7.4552  -10.2430   -0.0000 C   0  0  0  0  0  0  0  0  0  0  0  0
    8.7671   -9.4987   -0.0000 C   0  0  0  0  0  0  0  0  0  0  0  0
    7.4173  -11.7441   -0.0000 C   0  0  0  0  0  0  0  0  0  0  0  0
    8.7797   -7.9723   -0.0000 O   0  0  0  0  0  0  0  0  0  0  0  0
   10.0537  -10.2556   -0.0000 C   0  0  0  0  0  0  0  0  0  0  0  0
    8.7040  -12.5009   -0.0000 C   0  0  0  0  0  0  0  0  0  0  0  0
   10.0916   -7.2281   -0.0000 C   0  0  0  0  0  0  0  0  0  0  0  0
   10.0159  -11.7567   -0.0000 C   0  0  0  0  0  0  0  0  0  0  0  0
   11.3783   -7.9850   -0.0000 C   0  0  0  0  0  0  0  0  0  0  0  0
   10.1042   -5.7017   -0.0000 C   0  0  0  0  0  0  0  0  0  0  0  0
   12.6902   -7.2407   -0.0000 C   0  0  0  0  0  0  0  0  0  0  0  0
   11.4161   -4.9575   -0.0000 C   0  0  0  0  0  0  0  0  0  0  0  0
   12.7028   -5.7144   -0.0000 C   0  0  0  0  0  0  0  0  0  0  0  0
  1  2  1  0
  2  3  2  0
  2  4  1  0
  3  5  1  0
  4  6  2  0
  5  7  2  0
  5  8  1  0
  7  9  1  0
  8 10  2  0
  9 11  2  0
 11 12  1  0
 12 13  1  0
 14 13  1  0
 15 13  1  0
 14 16  1  6
 14 17  1  0
 15 18  1  1
 15 19  1  0
 16 20  1  0
 20 21  1  1
 21 22  1  0
 22 23  2  0
 22 24  1  0
 24 25  1  0
 24 26  2  0
 25 27  1  0
 25 28  2  0
 26 29  1  0
 27 30  1  0
 28 31  1  0
 30 32  1  0
 30 33  1  0
 32 34  1  0
 33 35  1  0
 34 36  1  0
  6  7  1  0
 10 11  1  0
 17 19  1  0
 18 20  1  0
 29 31  2  0
 35 36  1  0
M  END
>  <MolRegNo>  (1) 
1594466

>  <m>  (1) 
=

>  <Value>  (1) 
580

>  <Unit>  (1) 
nM

>  <Type>  (1) 
IC50

>  <pValue>  (1) 
6.24

>  <Ligand Efficiency>  (1) 
0

>  <Binding Efficiency>  (1) 
0

>  <Surface Efficiency>  (1) 
0

>  <Assay Index>  (1) 
384135

>  <Assay Category>  (1) 


>  <Assay Organism>  (1) 
Homo sapiens

>  <Target ID>  (1) 
11365

>  <Target Name>  (1) 
Cytochrome P450 2D6

>  <Target Organism>  (1) 
Homo sapiens

>  <Target Description>  (1) 
Target is a single protein chain

>  <Sequence Accession>  (1) 
P10635

>  <Reference>  (1) 
Bioorg Med Chem 16 (18), 8607-8618 (2008)

>  <Pubmed ID>  (1) 
18752960

>  <DOI>  (1) 
10.1016/j.bmc.2008.08.006

$$$$
