4wnv_ligand_444
     RDKit          2D

 37 40  0  0  1  0  0  0  0  0999 V2000
    0.0000   -0.0000   -0.0000 S   0  0  0  0  0  0  0  0  0  0  0  0
    1.2045    0.8944   -0.0000 C   0  0  0  0  0  0  0  0  0  0  0  0
    0.4532   -1.4191   -0.0000 C   0  0  0  0  0  0  0  0  0  0  0  0
    2.4090    0.0239   -0.0000 N   0  0  0  0  0  0  0  0  0  0  0  0
    1.1926    2.4090   -0.0000 N   0  0  0  0  0  0  0  0  0  0  0  0
    1.9439   -1.4072   -0.0000 C   0  0  0  0  0  0  0  0  0  0  0  0
   -0.3339   -2.6832   -0.0000 C   0  0  0  0  0  0  0  0  0  0  0  0
   -0.1193    3.1841   -0.0000 C   0  0  0  0  0  0  0  0  0  0  0  0
    2.8144   -2.5998   -0.0000 C   0  0  0  0  0  0  0  0  0  0  0  0
   -1.8485   -2.6475   -0.0000 O   0  0  0  0  0  0  0  0  0  0  0  0
    0.3816   -3.9831   -0.0000 C   0  0  0  0  0  0  0  0  0  0  0  0
   -1.4311    2.4447   -0.0000 O   0  0  0  0  0  0  0  0  0  0  0  0
   -0.1312    4.6987   -0.0000 N   0  0  0  0  0  0  0  0  0  0  0  0
   -1.4430    5.4619   -0.0000 C   0  0  0  0  0  0  0  0  0  0  0  0
   -1.4549    6.9764   -0.0000 C   0  0  0  0  0  0  0  0  0  0  0  0
   -2.7548    4.7344   -0.0000 C   0  0  0  0  0  0  0  0  0  0  0  0
   -2.7667    7.7516   -0.0000 C   0  0  0  0  0  0  0  0  0  0  0  0
   -0.1550    7.7397   -0.0000 C   0  0  0  0  0  0  0  0  0  0  0  0
   -4.0666    5.4857   -0.0000 C   0  0  0  0  0  0  0  0  0  0  0  0
   -4.0785    7.0003   -0.0000 N   0  0  0  0  0  0  0  0  0  0  0  0
    1.1329    6.9884   -0.0000 N   0  0  0  0  0  0  0  0  0  0  0  0
   -5.3903    7.7516   -0.0000 C   0  0  0  0  0  0  0  0  0  0  0  0
    2.4209    7.7516   -0.0000 C   0  0  0  0  0  0  0  0  0  0  0  0
    1.1210    5.4857   -0.0000 C   0  0  0  0  0  0  0  0  0  0  0  0
   -6.6902    7.0122   -0.0000 C   0  0  0  0  0  0  0  0  0  0  0  0
    3.7088    7.0003   -0.0000 C   0  0  0  0  0  0  0  0  0  0  0  0
    2.4090    4.7464   -0.0000 C   0  0  0  0  0  0  0  0  0  0  0  0
   -8.0020    7.7635   -0.0000 F   0  0  0  0  0  0  0  0  0  0  0  0
    3.6850    5.5096   -0.0000 C   0  0  0  0  0  0  0  0  0  0  0  0
    5.0087    7.7635   -0.0000 C   0  0  0  0  0  0  0  0  0  0  0  0
    6.2967    7.0122   -0.0000 C   0  0  0  0  0  0  0  0  0  0  0  0
    6.2609    5.5215   -0.0000 C   0  0  0  0  0  0  0  0  0  0  0  0
    7.5846    7.7754   -0.0000 C   0  0  0  0  0  0  0  0  0  0  0  0
    7.5489    4.7821   -0.0000 C   0  0  0  0  0  0  0  0  0  0  0  0
    8.8726    7.0241   -0.0000 C   0  0  0  0  0  0  0  0  0  0  0  0
    8.8487    5.5334   -0.0000 C   0  0  0  0  0  0  0  0  0  0  0  0
   10.1367    4.7941   -0.0000 F   0  0  0  0  0  0  0  0  0  0  0  0
  1  2  1  0
  1  3  1  0
  2  4  2  0
  2  5  1  0
  3  6  2  0
  3  7  1  0
  5  8  1  0
  6  9  1  0
  7 10  2  0
  7 11  1  0
  8 12  2  0
  8 13  1  0
 14 13  1  6
 14 15  1  0
 14 16  1  0
 15 17  1  0
 15 18  1  1
 16 19  1  0
 17 20  1  0
 18 21  1  0
 20 22  1  0
 21 23  1  0
 21 24  1  0
 22 25  1  0
 23 26  1  0
 24 27  1  0
 25 28  1  0
 26 29  1  0
 26 30  1  6
 30 31  1  0
 31 32  2  0
 31 33  1  0
 32 34  1  0
 33 35  2  0
 34 36  2  0
 36 37  1  0
  4  6  1  0
 19 20  1  0
 27 29  1  0
 35 36  1  0
M  END
>  <MolRegNo>  (1) 
421497

>  <m>  (1) 
=

>  <Value>  (1) 
4300

>  <Unit>  (1) 
nM

>  <Type>  (1) 
IC50

>  <pValue>  (1) 
5.37

>  <Ligand Efficiency>  (1) 
0

>  <Binding Efficiency>  (1) 
0

>  <Surface Efficiency>  (1) 
0

>  <Assay Index>  (1) 
307824

>  <Assay Category>  (1) 


>  <Assay Organism>  (1) 
Homo sapiens

>  <Target ID>  (1) 
11365

>  <Target Name>  (1) 
Cytochrome P450 2D6

>  <Target Organism>  (1) 
Homo sapiens

>  <Target Description>  (1) 
Target is a single protein chain

>  <Sequence Accession>  (1) 
P10635

>  <Reference>  (1) 
Bioorg Med Chem Lett 17 (11), 2992-2997 (2007)

>  <Pubmed ID>  (1) 
17418570

>  <DOI>  (1) 
10.1016/j.bmcl.2007.03.065

$$$$
