4wnv_ligand_1030
     RDKit          2D

 26 28  0  0  0  0  0  0  0  0999 V2000
    0.0000   -0.0000   -0.0000 F   0  0  0  0  0  0  0  0  0  0  0  0
   -0.0119    1.5103   -0.0000 C   0  0  0  0  0  0  0  0  0  0  0  0
    1.2843    2.2832   -0.0000 C   0  0  0  0  0  0  0  0  0  0  0  0
   -1.3200    2.2714   -0.0000 C   0  0  0  0  0  0  0  0  0  0  0  0
    1.2724    3.8054   -0.0000 C   0  0  0  0  0  0  0  0  0  0  0  0
    2.5687    1.5459   -0.0000 C   0  0  0  0  0  0  0  0  0  0  0  0
   -1.3319    3.7935   -0.0000 C   0  0  0  0  0  0  0  0  0  0  0  0
   -0.0357    4.5665   -0.0000 C   0  0  0  0  0  0  0  0  0  0  0  0
    3.8530    2.3189   -0.0000 N   0  0  0  0  0  0  0  0  0  0  0  0
    2.5568    0.0595   -0.0000 C   0  0  0  0  0  0  0  0  0  0  0  0
    5.1373    1.5697   -0.0000 C   0  0  0  0  0  0  0  0  0  0  0  0
    3.8292    3.8173   -0.0000 C   0  0  0  0  0  0  0  0  0  0  0  0
    3.8411   -0.6778   -0.0000 C   0  0  0  0  0  0  0  0  0  0  0  0
    6.4216    2.3308   -0.0000 C   0  0  0  0  0  0  0  0  0  0  0  0
    5.1254    4.5784   -0.0000 C   0  0  0  0  0  0  0  0  0  0  0  0
    3.8292   -2.1643   -0.0000 C   0  0  0  0  0  0  0  0  0  0  0  0
    5.1135    0.0951   -0.0000 C   0  0  0  0  0  0  0  0  0  0  0  0
    6.4097    3.8411   -0.0000 N   0  0  0  0  0  0  0  0  0  0  0  0
    2.5211   -2.9016   -0.0000 O   0  0  0  0  0  0  0  0  0  0  0  0
    5.1135   -2.9016   -0.0000 C   0  0  0  0  0  0  0  0  0  0  0  0
    6.3979   -0.6422   -0.0000 C   0  0  0  0  0  0  0  0  0  0  0  0
    1.2130   -2.1405   -0.0000 C   0  0  0  0  0  0  0  0  0  0  0  0
    6.3979   -2.1287   -0.0000 C   0  0  0  0  0  0  0  0  0  0  0  0
   -0.0951   -2.8778   -0.0000 F   0  0  0  0  0  0  0  0  0  0  0  0
    1.2011   -0.6303   -0.0000 F   0  0  0  0  0  0  0  0  0  0  0  0
    0.1308   -1.0584   -0.0000 F   0  0  0  0  0  0  0  0  0  0  0  0
  1  2  1  0
  2  3  2  0
  2  4  1  0
  3  5  1  0
  3  6  1  0
  4  7  2  0
  5  8  2  0
  6  9  1  0
  6 10  1  0
  9 11  1  0
  9 12  1  0
 10 13  1  0
 11 14  1  0
 12 15  1  0
 13 16  2  0
 13 17  1  0
 14 18  1  0
 16 19  1  0
 16 20  1  0
 17 21  2  0
 19 22  1  0
 20 23  2  0
 22 24  1  0
 22 25  1  0
 22 26  1  0
  7  8  1  0
 15 18  1  0
 21 23  1  0
M  END
>  <MolRegNo>  (1) 
632292

>  <m>  (1) 
=

>  <Value>  (1) 
3100

>  <Unit>  (1) 
nM

>  <Type>  (1) 
IC50

>  <pValue>  (1) 
5.51

>  <Ligand Efficiency>  (1) 
0

>  <Binding Efficiency>  (1) 
0

>  <Surface Efficiency>  (1) 
0

>  <Assay Index>  (1) 
480301

>  <Assay Category>  (1) 


>  <Assay Organism>  (1) 


>  <Target ID>  (1) 
11365

>  <Target Name>  (1) 
Cytochrome P450 2D6

>  <Target Organism>  (1) 
Homo sapiens

>  <Target Description>  (1) 
Target is a single protein chain

>  <Sequence Accession>  (1) 
P10635

>  <Reference>  (1) 
Bioorg Med Chem Lett 20 (12), 3788-3792 (2010)

>  <Pubmed ID>  (1) 
20471260

>  <DOI>  (1) 
10.1016/j.bmcl.2010.04.052

$$$$
