4wnv_ligand_393
     RDKit          2D

 30 32  0  0  0  0  0  0  0  0999 V2000
    0.0000   -0.0000   -0.0000 Cl  0  0  0  0  0  0  0  0  0  0  0  0
   -1.3105    0.7625   -0.0000 C   0  0  0  0  0  0  0  0  0  0  0  0
   -1.3224    2.2755   -0.0000 C   0  0  0  0  0  0  0  0  0  0  0  0
   -2.6210    0.0238   -0.0000 C   0  0  0  0  0  0  0  0  0  0  0  0
   -2.6329    3.0498   -0.0000 C   0  0  0  0  0  0  0  0  0  0  0  0
   -0.0357    3.0379   -0.0000 C   0  0  0  0  0  0  0  0  0  0  0  0
   -3.9433    0.7863   -0.0000 C   0  0  0  0  0  0  0  0  0  0  0  0
   -3.9433    2.3112   -0.0000 C   0  0  0  0  0  0  0  0  0  0  0  0
    1.2509    2.2993   -0.0000 N   0  0  0  0  0  0  0  0  0  0  0  0
    2.5376    3.0618   -0.0000 C   0  0  0  0  0  0  0  0  0  0  0  0
    3.8242    2.3231   -0.0000 N   0  0  0  0  0  0  0  0  0  0  0  0
    2.5256    4.5867   -0.0000 N   0  0  0  0  0  0  0  0  0  0  0  0
    5.1228    3.0856   -0.0000 C   0  0  0  0  0  0  0  0  0  0  0  0
    3.8123    5.3491   -0.0000 C   0  0  0  0  0  0  0  0  0  0  0  0
    6.4094    2.3469   -0.0000 N   0  0  0  0  0  0  0  0  0  0  0  0
    5.1109    4.6105   -0.0000 C   0  0  0  0  0  0  0  0  0  0  0  0
    6.3975    0.8578   -0.0000 C   0  0  0  0  0  0  0  0  0  0  0  0
    6.3975    5.3849   -0.0000 N   0  0  0  0  0  0  0  0  0  0  0  0
    7.6842    0.1191   -0.0000 C   0  0  0  0  0  0  0  0  0  0  0  0
    6.3856    6.8979   -0.0000 O   0  0  0  0  0  0  0  0  0  0  0  0
    7.6961    4.6462   -0.0000 O   0  0  0  0  0  0  0  0  0  0  0  0
    7.6722   -1.3700   -0.0000 C   0  0  0  0  0  0  0  0  0  0  0  0
    8.9708    0.8935   -0.0000 C   0  0  0  0  0  0  0  0  0  0  0  0
    8.9589   -2.1087   -0.0000 C   0  0  0  0  0  0  0  0  0  0  0  0
   10.2575    0.1430   -0.0000 C   0  0  0  0  0  0  0  0  0  0  0  0
   10.2575   -1.3462   -0.0000 C   0  0  0  0  0  0  0  0  0  0  0  0
   11.5441   -2.0849   -0.0000 C   0  0  0  0  0  0  0  0  0  0  0  0
   11.5322   -3.5740   -0.0000 N   0  0  0  0  0  0  0  0  0  0  0  0
   12.8189   -4.3127   -0.0000 C   0  0  0  0  0  0  0  0  0  0  0  0
   10.2217   -4.3127   -0.0000 C   0  0  0  0  0  0  0  0  0  0  0  0
  1  2  1  0
  2  3  2  0
  2  4  1  0
  3  5  1  0
  3  6  1  0
  4  7  2  0
  5  8  2  0
  6  9  1  0
  9 10  1  0
 10 11  2  0
 10 12  1  0
 11 13  1  0
 12 14  2  0
 13 15  1  0
 13 16  2  0
 15 17  1  0
 16 18  1  0
 17 19  1  0
 18 20  2  0
 18 21  1  0
 19 22  1  0
 19 23  1  0
 22 24  1  0
 23 25  1  0
 24 26  1  0
 26 27  1  0
 27 28  1  0
 28 29  1  0
 28 30  1  0
  7  8  1  0
 14 16  1  0
 25 26  1  0
M  CHG  2  18   1  21  -1
M  END
>  <MolRegNo>  (1) 
411336

>  <m>  (1) 
=

>  <Value>  (1) 
1700

>  <Unit>  (1) 
nM

>  <Type>  (1) 
IC50

>  <pValue>  (1) 
5.77

>  <Ligand Efficiency>  (1) 
0

>  <Binding Efficiency>  (1) 
0

>  <Surface Efficiency>  (1) 
0

>  <Assay Index>  (1) 
302005

>  <Assay Category>  (1) 


>  <Assay Organism>  (1) 


>  <Target ID>  (1) 
11365

>  <Target Name>  (1) 
Cytochrome P450 2D6

>  <Target Organism>  (1) 
Homo sapiens

>  <Target Description>  (1) 
Target is a single protein chain

>  <Sequence Accession>  (1) 
P10635

>  <Reference>  (1) 
Bioorg Med Chem Lett 17 (1), 225-230 (2007)

>  <Pubmed ID>  (1) 
17055721

>  <DOI>  (1) 
10.1016/j.bmcl.2006.09.056

$$$$
