4wnv_ligand_547
     RDKit          2D

 35 38  0  0  0  0  0  0  0  0999 V2000
    0.0000   -0.0000   -0.0000 Cl  0  0  0  0  0  0  0  0  0  0  0  0
    1.2936   -0.7358   -0.0000 C   0  0  0  0  0  0  0  0  0  0  0  0
    1.2817   -2.2311   -0.0000 C   0  0  0  0  0  0  0  0  0  0  0  0
    2.5752    0.0237   -0.0000 C   0  0  0  0  0  0  0  0  0  0  0  0
   -0.0356   -2.9669   -0.0000 Cl  0  0  0  0  0  0  0  0  0  0  0  0
    2.5634   -2.9669   -0.0000 C   0  0  0  0  0  0  0  0  0  0  0  0
    3.8688   -0.7120   -0.0000 C   0  0  0  0  0  0  0  0  0  0  0  0
    3.8569   -2.2073   -0.0000 C   0  0  0  0  0  0  0  0  0  0  0  0
    5.1505    0.0593   -0.0000 N   0  0  0  0  0  0  0  0  0  0  0  0
    6.4440   -0.6764   -0.0000 C   0  0  0  0  0  0  0  0  0  0  0  0
    5.1267    1.5784   -0.0000 C   0  0  0  0  0  0  0  0  0  0  0  0
    7.7257    0.0949   -0.0000 C   0  0  0  0  0  0  0  0  0  0  0  0
    3.8095    2.3379   -0.0000 C   0  0  0  0  0  0  0  0  0  0  0  0
    9.0193   -0.6408   -0.0000 O   0  0  0  0  0  0  0  0  0  0  0  0
    7.7020    1.6140   -0.0000 N   0  0  0  0  0  0  0  0  0  0  0  0
    3.7857    3.8569   -0.0000 O   0  0  0  0  0  0  0  0  0  0  0  0
    8.9955    2.3735   -0.0000 C   0  0  0  0  0  0  0  0  0  0  0  0
    6.3847    2.3616   -0.0000 C   0  0  0  0  0  0  0  0  0  0  0  0
    2.4684    4.6164   -0.0000 C   0  0  0  0  0  0  0  0  0  0  0  0
    8.9837    3.8807   -0.0000 C   0  0  0  0  0  0  0  0  0  0  0  0
    9.8975    1.1986   -0.0000 C   0  0  0  0  0  0  0  0  0  0  0  0
    6.3728    3.8807   -0.0000 C   0  0  0  0  0  0  0  0  0  0  0  0
   10.2772    4.6402   -0.0000 C   0  0  0  0  0  0  0  0  0  0  0  0
    7.6664    4.6402   -0.0000 C   0  0  0  0  0  0  0  0  0  0  0  0
   11.3690    1.4122   -0.0000 N   0  0  0  0  0  0  0  0  0  0  0  0
   11.5708    3.9044   -0.0000 C   0  0  0  0  0  0  0  0  0  0  0  0
   10.2654    6.1473   -0.0000 C   0  0  0  0  0  0  0  0  0  0  0  0
   12.2591    0.2255   -0.0000 C   0  0  0  0  0  0  0  0  0  0  0  0
   11.9149    2.8126   -0.0000 C   0  0  0  0  0  0  0  0  0  0  0  0
   12.8525    4.6639   -0.0000 C   0  0  0  0  0  0  0  0  0  0  0  0
   11.5470    6.9187   -0.0000 C   0  0  0  0  0  0  0  0  0  0  0  0
   13.7306    0.4272   -0.0000 C   0  0  0  0  0  0  0  0  0  0  0  0
   13.3984    3.0143   -0.0000 C   0  0  0  0  0  0  0  0  0  0  0  0
   12.8406    6.1829   -0.0000 C   0  0  0  0  0  0  0  0  0  0  0  0
   14.3003    1.8276   -0.0000 O   0  0  0  0  0  0  0  0  0  0  0  0
  1  2  1  0
  2  3  2  0
  2  4  1  0
  3  5  1  0
  3  6  1  0
  4  7  2  0
  6  8  2  0
  7  9  1  0
  9 10  1  0
  9 11  1  0
 10 12  1  0
 11 13  1  0
 12 14  2  0
 12 15  1  0
 13 16  1  0
 15 17  1  0
 15 18  1  0
 16 19  1  0
 17 20  1  0
 17 21  1  0
 18 22  1  0
 20 23  1  0
 20 24  1  0
 21 25  1  0
 23 26  2  0
 23 27  1  0
 25 28  1  0
 25 29  1  0
 26 30  1  0
 27 31  2  0
 28 32  1  0
 29 33  1  0
 30 34  2  0
 32 35  1  0
  7  8  1  0
 22 24  1  0
 31 34  1  0
 33 35  1  0
M  END
>  <MolRegNo>  (1) 
426866

>  <m>  (1) 
=

>  <Value>  (1) 
3200

>  <Unit>  (1) 
nM

>  <Type>  (1) 
IC50

>  <pValue>  (1) 
5.5

>  <Ligand Efficiency>  (1) 
0

>  <Binding Efficiency>  (1) 
0

>  <Surface Efficiency>  (1) 
0

>  <Assay Index>  (1) 
328211

>  <Assay Category>  (1) 


>  <Assay Organism>  (1) 


>  <Target ID>  (1) 
11365

>  <Target Name>  (1) 
Cytochrome P450 2D6

>  <Target Organism>  (1) 
Homo sapiens

>  <Target Description>  (1) 
Target is a single protein chain

>  <Sequence Accession>  (1) 
P10635

>  <Reference>  (1) 
Bioorg Med Chem Lett 18 (12), 3500-3503 (2008)

>  <Pubmed ID>  (1) 
18502123

>  <DOI>  (1) 
10.1016/j.bmcl.2008.05.027

$$$$
