4wnv_ligand_302
     RDKit          2D

 37 41  0  0  1  0  0  0  0  0999 V2000
    0.0000   -0.0000   -0.0000 S   0  0  0  0  0  0  0  0  0  0  0  0
   -1.0304   -1.0897   -0.0000 C   0  0  0  0  0  0  0  0  0  0  0  0
    1.3502   -0.6159   -0.0000 C   0  0  0  0  0  0  0  0  0  0  0  0
   -2.5347   -0.9002   -0.0000 C   0  0  0  0  0  0  0  0  0  0  0  0
   -0.3079   -2.3925   -0.0000 C   0  0  0  0  0  0  0  0  0  0  0  0
    2.6531    0.1303   -0.0000 C   0  0  0  0  0  0  0  0  0  0  0  0
    1.1607   -2.1083   -0.0000 C   0  0  0  0  0  0  0  0  0  0  0  0
   -3.1269    0.4975   -0.0000 C   0  0  0  0  0  0  0  0  0  0  0  0
   -3.4348   -2.0846   -0.0000 C   0  0  0  0  0  0  0  0  0  0  0  0
    2.6649    1.6463   -0.0000 O   0  0  0  0  0  0  0  0  0  0  0  0
    3.9323   -0.6277   -0.0000 N   0  0  0  0  0  0  0  0  0  0  0  0
   -4.6311    0.6870   -0.0000 C   0  0  0  0  0  0  0  0  0  0  0  0
   -4.9390   -1.8951   -0.0000 C   0  0  0  0  0  0  0  0  0  0  0  0
    5.2351    0.1184   -0.0000 C   0  0  0  0  0  0  0  0  0  0  0  0
    3.8494   -2.1201   -0.0000 C   0  0  0  0  0  0  0  0  0  0  0  0
   -5.5431   -0.5093   -0.0000 C   0  0  0  0  0  0  0  0  0  0  0  0
    6.5854   -0.4975   -0.0000 C   0  0  0  0  0  0  0  0  0  0  0  0
    5.4010    1.6227   -0.0000 C   0  0  0  0  0  0  0  0  0  0  0  0
   -7.0473   -0.3198   -0.0000 C   0  0  0  0  0  0  0  0  0  0  0  0
    7.5921    0.6159   -0.0000 N   0  0  0  0  0  0  0  0  0  0  0  0
    6.8696    1.9306   -0.0000 C   0  0  0  0  0  0  0  0  0  0  0  0
   -7.6514    1.0778   -0.0000 C   0  0  0  0  0  0  0  0  0  0  0  0
    9.0727    0.4501   -0.0000 C   0  0  0  0  0  0  0  0  0  0  0  0
    9.9610    1.6700   -0.0000 O   0  0  0  0  0  0  0  0  0  0  0  0
    9.6530   -0.9238   -0.0000 N   0  0  0  0  0  0  0  0  0  0  0  0
   11.1099   -1.2436   -0.0000 C   0  0  0  0  0  0  0  0  0  0  0  0
    8.8713   -2.2030   -0.0000 C   0  0  0  0  0  0  0  0  0  0  0  0
   11.2402   -2.7242   -0.0000 C   0  0  0  0  0  0  0  0  0  0  0  0
    9.8544   -3.3282   -0.0000 C   0  0  0  0  0  0  0  0  0  0  0  0
   12.5193   -3.4822   -0.0000 N   0  0  0  0  0  0  0  0  0  0  0  0
   13.8222   -2.7360   -0.0000 C   0  0  0  0  0  0  0  0  0  0  0  0
   15.1014   -3.4940   -0.0000 C   0  0  0  0  0  0  0  0  0  0  0  0
   15.0658   -4.9864   -0.0000 C   0  0  0  0  0  0  0  0  0  0  0  0
   16.3924   -2.7360   -0.0000 C   0  0  0  0  0  0  0  0  0  0  0  0
   16.3450   -5.7444   -0.0000 C   0  0  0  0  0  0  0  0  0  0  0  0
   17.6716   -3.4940   -0.0000 C   0  0  0  0  0  0  0  0  0  0  0  0
   17.6479   -4.9983   -0.0000 O   0  0  0  0  0  0  0  0  0  0  0  0
  1  2  1  0
  1  3  1  0
  2  4  1  0
  2  5  2  0
  3  6  1  0
  3  7  2  0
  4  8  2  0
  4  9  1  0
  6 10  2  0
  6 11  1  0
  8 12  1  0
  9 13  2  0
 14 11  1  1
 11 15  1  0
 12 16  2  0
 14 17  1  0
 14 18  1  0
 16 19  1  0
 17 20  1  0
 18 21  1  0
 19 22  1  0
 20 23  1  0
 23 24  2  0
 23 25  1  0
 25 26  1  0
 25 27  1  0
 26 28  1  0
 27 29  1  0
 28 30  1  6
 30 31  1  0
 31 32  1  0
 32 33  1  0
 32 34  1  0
 33 35  1  0
 34 36  1  0
 35 37  1  0
  5  7  1  0
 13 16  1  0
 20 21  1  0
 28 29  1  0
 36 37  1  0
M  END
>  <MolRegNo>  (1) 
359775

>  <m>  (1) 
=

>  <Value>  (1) 
5800

>  <Unit>  (1) 
nM

>  <Type>  (1) 
IC50

>  <pValue>  (1) 
5.24

>  <Ligand Efficiency>  (1) 
0

>  <Binding Efficiency>  (1) 
0

>  <Surface Efficiency>  (1) 
0

>  <Assay Index>  (1) 
268140

>  <Assay Category>  (1) 


>  <Assay Organism>  (1) 
Homo sapiens

>  <Target ID>  (1) 
11365

>  <Target Name>  (1) 
Cytochrome P450 2D6

>  <Target Organism>  (1) 
Homo sapiens

>  <Target Description>  (1) 
Target is a single protein chain

>  <Sequence Accession>  (1) 
P10635

>  <Reference>  (1) 
Bioorg Med Chem Lett 16 (18), 4922-4930 (2006)

>  <Pubmed ID>  (1) 
16824755

>  <DOI>  (1) 
10.1016/j.bmcl.2006.06.049

$$$$
