4wnv_ligand_1052
     RDKit          2D

 34 38  0  0  0  0  0  0  0  0999 V2000
    0.0000   -0.0000   -0.0000 S   0  0  0  0  0  0  0  0  0  0  0  0
    1.4876    0.0238   -0.0000 F   0  0  0  0  0  0  0  0  0  0  0  0
   -0.7616   -1.2972   -0.0000 F   0  0  0  0  0  0  0  0  0  0  0  0
    0.7259   -1.2853   -0.0000 F   0  0  0  0  0  0  0  0  0  0  0  0
    0.7259    1.3210   -0.0000 F   0  0  0  0  0  0  0  0  0  0  0  0
   -1.4757    0.4046   -0.0000 F   0  0  0  0  0  0  0  0  0  0  0  0
   -0.7735    1.3091   -0.0000 C   0  0  0  0  0  0  0  0  0  0  0  0
   -0.0476    2.6181   -0.0000 C   0  0  0  0  0  0  0  0  0  0  0  0
   -2.2968    1.3091   -0.0000 C   0  0  0  0  0  0  0  0  0  0  0  0
   -0.8092    3.9272   -0.0000 C   0  0  0  0  0  0  0  0  0  0  0  0
   -3.0584    2.6181   -0.0000 C   0  0  0  0  0  0  0  0  0  0  0  0
   -2.3206    3.9391   -0.0000 C   0  0  0  0  0  0  0  0  0  0  0  0
   -0.0714    5.2481   -0.0000 C   0  0  0  0  0  0  0  0  0  0  0  0
   -0.0476    6.7595   -0.0000 C   0  0  0  0  0  0  0  0  0  0  0  0
    1.3448    4.7721   -0.0000 C   0  0  0  0  0  0  0  0  0  0  0  0
   -1.3567    6.0335   -0.0000 C   0  0  0  0  0  0  0  0  0  0  0  0
    1.3686    7.2117   -0.0000 C   0  0  0  0  0  0  0  0  0  0  0  0
    2.2373    5.9859   -0.0000 N   0  0  0  0  0  0  0  0  0  0  0  0
    3.7248    5.9740   -0.0000 C   0  0  0  0  0  0  0  0  0  0  0  0
    4.4508    4.6769   -0.0000 C   0  0  0  0  0  0  0  0  0  0  0  0
    5.9383    4.6650   -0.0000 C   0  0  0  0  0  0  0  0  0  0  0  0
    6.6643    3.3678   -0.0000 S   0  0  0  0  0  0  0  0  0  0  0  0
    8.1518    3.3797   -0.0000 C   0  0  0  0  0  0  0  0  0  0  0  0
    9.0206    2.1778   -0.0000 N   0  0  0  0  0  0  0  0  0  0  0  0
    9.0087    4.6055   -0.0000 N   0  0  0  0  0  0  0  0  0  0  0  0
   10.4367    2.6538   -0.0000 N   0  0  0  0  0  0  0  0  0  0  0  0
   10.4248    4.1533   -0.0000 C   0  0  0  0  0  0  0  0  0  0  0  0
    8.5207    6.0454   -0.0000 C   0  0  0  0  0  0  0  0  0  0  0  0
   11.6149    5.0458   -0.0000 C   0  0  0  0  0  0  0  0  0  0  0  0
   11.6030    6.5572   -0.0000 O   0  0  0  0  0  0  0  0  0  0  0  0
   13.0310    4.5936   -0.0000 C   0  0  0  0  0  0  0  0  0  0  0  0
   13.0191    7.0332   -0.0000 C   0  0  0  0  0  0  0  0  0  0  0  0
   13.8998    5.8193   -0.0000 N   0  0  0  0  0  0  0  0  0  0  0  0
   13.4832    3.1774   -0.0000 C   0  0  0  0  0  0  0  0  0  0  0  0
  1  2  1  0
  1  3  1  0
  1  4  1  0
  1  5  1  0
  1  6  1  0
  1  7  1  0
  7  8  2  0
  7  9  1  0
  8 10  1  0
  9 11  2  0
 10 12  2  0
 10 13  1  0
 13 14  1  0
 13 15  1  0
 13 16  1  0
 14 17  1  0
 15 18  1  0
 18 19  1  0
 19 20  1  0
 20 21  1  0
 21 22  1  0
 22 23  1  0
 23 24  2  0
 23 25  1  0
 24 26  1  0
 25 27  1  0
 25 28  1  0
 27 29  1  0
 29 30  1  0
 29 31  2  0
 30 32  1  0
 31 33  1  0
 31 34  1  0
 11 12  1  0
 14 16  1  0
 17 18  1  0
 26 27  2  0
 32 33  2  0
M  END
>  <MolRegNo>  (1) 
684429

>  <m>  (1) 
=

>  <Value>  (1) 
3000

>  <Unit>  (1) 
nM

>  <Type>  (1) 
IC50

>  <pValue>  (1) 
5.52

>  <Ligand Efficiency>  (1) 
0

>  <Binding Efficiency>  (1) 
0

>  <Surface Efficiency>  (1) 
0

>  <Assay Index>  (1) 
489618

>  <Assay Category>  (1) 


>  <Assay Organism>  (1) 


>  <Target ID>  (1) 
11365

>  <Target Name>  (1) 
Cytochrome P450 2D6

>  <Target Organism>  (1) 
Homo sapiens

>  <Target Description>  (1) 
Target is a single protein chain

>  <Sequence Accession>  (1) 
P10635

>  <Reference>  (1) 
Bioorg Med Chem Lett 20 (15), 4566-4568 (2010)

>  <Pubmed ID>  (1) 
20573506

>  <DOI>  (1) 
10.1016/j.bmcl.2010.06.018

$$$$
