4wnv_ligand_646
     RDKit          2D

 39 42  0  0  0  0  0  0  0  0999 V2000
    0.0000   -0.0000   -0.0000 Cl  0  0  0  0  0  0  0  0  0  0  0  0
    1.2884   -0.7329   -0.0000 C   0  0  0  0  0  0  0  0  0  0  0  0
    1.2766   -2.2223   -0.0000 C   0  0  0  0  0  0  0  0  0  0  0  0
    2.5769    0.0236   -0.0000 C   0  0  0  0  0  0  0  0  0  0  0  0
   -0.0355   -2.9669   -0.0000 Cl  0  0  0  0  0  0  0  0  0  0  0  0
    2.5769   -2.9551   -0.0000 C   0  0  0  0  0  0  0  0  0  0  0  0
    3.8535   -0.7211   -0.0000 C   0  0  0  0  0  0  0  0  0  0  0  0
    3.8535   -2.1868   -0.0000 C   0  0  0  0  0  0  0  0  0  0  0  0
    5.1419    0.0473   -0.0000 N   0  0  0  0  0  0  0  0  0  0  0  0
    5.1301    1.5603   -0.0000 C   0  0  0  0  0  0  0  0  0  0  0  0
    6.4304   -0.6856   -0.0000 C   0  0  0  0  0  0  0  0  0  0  0  0
    3.8180    2.3168   -0.0000 C   0  0  0  0  0  0  0  0  0  0  0  0
    7.7188    0.0827   -0.0000 C   0  0  0  0  0  0  0  0  0  0  0  0
    2.4941    3.0852   -0.0000 N   0  0  0  0  0  0  0  0  0  0  0  0
    9.0072   -0.6501   -0.0000 O   0  0  0  0  0  0  0  0  0  0  0  0
    7.7070    1.5958   -0.0000 N   0  0  0  0  0  0  0  0  0  0  0  0
    9.0072    2.3641   -0.0000 C   0  0  0  0  0  0  0  0  0  0  0  0
    6.3949    2.3523   -0.0000 C   0  0  0  0  0  0  0  0  0  0  0  0
    8.9954    3.8653   -0.0000 C   0  0  0  0  0  0  0  0  0  0  0  0
   10.2957    1.6312   -0.0000 C   0  0  0  0  0  0  0  0  0  0  0  0
   10.2838    4.6218   -0.0000 C   0  0  0  0  0  0  0  0  0  0  0  0
    7.6951    4.6100   -0.0000 C   0  0  0  0  0  0  0  0  0  0  0  0
   11.5841    2.3877   -0.0000 N   0  0  0  0  0  0  0  0  0  0  0  0
   10.2720    6.1230   -0.0000 C   0  0  0  0  0  0  0  0  0  0  0  0
    7.6833    6.1230   -0.0000 C   0  0  0  0  0  0  0  0  0  0  0  0
   12.9435    1.7967   -0.0000 C   0  0  0  0  0  0  0  0  0  0  0  0
   11.7259    3.9008   -0.0000 C   0  0  0  0  0  0  0  0  0  0  0  0
    8.9718    6.8914   -0.0000 C   0  0  0  0  0  0  0  0  0  0  0  0
   13.9364    2.9197   -0.0000 C   0  0  0  0  0  0  0  0  0  0  0  0
   13.1799    4.2199   -0.0000 C   0  0  0  0  0  0  0  0  0  0  0  0
    8.9599    8.4044   -0.0000 C   0  0  0  0  0  0  0  0  0  0  0  0
   10.2484    9.1609   -0.0000 C   0  0  0  0  0  0  0  0  0  0  0  0
    7.6597    9.1609   -0.0000 C   0  0  0  0  0  0  0  0  0  0  0  0
   10.2366   10.6739   -0.0000 C   0  0  0  0  0  0  0  0  0  0  0  0
    7.6479   10.6739   -0.0000 C   0  0  0  0  0  0  0  0  0  0  0  0
   11.5250   11.4422   -0.0000 C   0  0  0  0  0  0  0  0  0  0  0  0
    8.9245   11.4422   -0.0000 C   0  0  0  0  0  0  0  0  0  0  0  0
   11.5132   12.9553   -0.0000 O   0  0  0  0  0  0  0  0  0  0  0  0
   12.8134   10.6976   -0.0000 N   0  0  0  0  0  0  0  0  0  0  0  0
  1  2  1  0
  2  3  2  0
  2  4  1  0
  3  5  1  0
  3  6  1  0
  4  7  2  0
  6  8  2  0
  7  9  1  0
  9 10  1  0
  9 11  1  0
 10 12  1  0
 11 13  1  0
 12 14  3  0
 13 15  2  0
 13 16  1  0
 16 17  1  0
 16 18  1  0
 17 19  1  0
 17 20  1  0
 19 21  2  0
 19 22  1  0
 20 23  1  0
 21 24  1  0
 22 25  2  0
 23 26  1  0
 23 27  1  0
 24 28  2  0
 26 29  1  0
 27 30  1  0
 28 31  1  0
 31 32  2  0
 31 33  1  0
 32 34  1  0
 33 35  2  0
 34 36  1  0
 34 37  2  0
 36 38  2  0
 36 39  1  0
  7  8  1  0
 25 28  1  0
 29 30  1  0
 35 37  1  0
M  END
>  <MolRegNo>  (1) 
449325

>  <m>  (1) 
=

>  <Value>  (1) 
3500

>  <Unit>  (1) 
nM

>  <Type>  (1) 
IC50

>  <pValue>  (1) 
5.46

>  <Ligand Efficiency>  (1) 
0

>  <Binding Efficiency>  (1) 
0

>  <Surface Efficiency>  (1) 
0

>  <Assay Index>  (1) 
404069

>  <Assay Category>  (1) 


>  <Assay Organism>  (1) 


>  <Target ID>  (1) 
11365

>  <Target Name>  (1) 
Cytochrome P450 2D6

>  <Target Organism>  (1) 
Homo sapiens

>  <Target Description>  (1) 
Target is a single protein chain

>  <Sequence Accession>  (1) 
P10635

>  <Reference>  (1) 
Bioorg Med Chem Lett 18 (13), 3716-3719 (2008)

>  <Pubmed ID>  (1) 
18524591

>  <DOI>  (1) 
10.1016/j.bmcl.2008.05.058

$$$$
