4wnv_ligand_401
     RDKit          2D

 24 26  0  0  1  0  0  0  0  0999 V2000
    0.0000   -0.0000   -0.0000 F   0  0  0  0  0  0  0  0  0  0  0  0
   -0.0118    1.5030   -0.0000 C   0  0  0  0  0  0  0  0  0  0  0  0
   -1.3137    2.2604   -0.0000 C   0  0  0  0  0  0  0  0  0  0  0  0
    1.2781    2.2604   -0.0000 C   0  0  0  0  0  0  0  0  0  0  0  0
   -1.3255    3.7634   -0.0000 C   0  0  0  0  0  0  0  0  0  0  0  0
   -2.6273    1.5267   -0.0000 C   0  0  0  0  0  0  0  0  0  0  0  0
    1.2663    3.7753   -0.0000 C   0  0  0  0  0  0  0  0  0  0  0  0
   -0.0473    4.5209   -0.0000 C   0  0  0  0  0  0  0  0  0  0  0  0
   -2.6273    4.5209   -0.0000 C   0  0  0  0  0  0  0  0  0  0  0  0
   -3.9410    0.8048   -0.0000 F   0  0  0  0  0  0  0  0  0  0  0  0
   -1.8936    0.2367   -0.0000 F   0  0  0  0  0  0  0  0  0  0  0  0
   -3.3847    2.8403   -0.0000 F   0  0  0  0  0  0  0  0  0  0  0  0
   -2.6391    6.0239   -0.0000 N   0  0  0  0  0  0  0  0  0  0  0  0
   -3.9410    6.7813   -0.0000 C   0  0  0  0  0  0  0  0  0  0  0  0
   -1.3610    6.7813   -0.0000 C   0  0  0  0  0  0  0  0  0  0  0  0
   -3.9528    8.2843   -0.0000 C   0  0  0  0  0  0  0  0  0  0  0  0
   -5.2428    6.0475   -0.0000 C   0  0  0  0  0  0  0  0  0  0  0  0
   -1.2190    8.2843   -0.0000 C   0  0  0  0  0  0  0  0  0  0  0  0
   -0.0118    6.1896   -0.0000 C   0  0  0  0  0  0  0  0  0  0  0  0
   -5.2546    9.0417   -0.0000 C   0  0  0  0  0  0  0  0  0  0  0  0
   -6.5446    6.8168   -0.0000 C   0  0  0  0  0  0  0  0  0  0  0  0
    0.2367    8.6038   -0.0000 N   0  0  0  0  0  0  0  0  0  0  0  0
    0.9823    7.3138   -0.0000 C   0  0  0  0  0  0  0  0  0  0  0  0
   -6.5683    8.3080   -0.0000 O   0  0  0  0  0  0  0  0  0  0  0  0
  1  2  1  0
  2  3  2  0
  2  4  1  0
  3  5  1  0
  3  6  1  0
  4  7  2  0
  5  8  2  0
  5  9  1  0
  6 10  1  0
  6 11  1  0
  6 12  1  0
  9 13  1  0
 13 14  1  0
 15 13  1  6
 14 16  1  0
 14 17  1  0
 15 18  1  0
 15 19  1  0
 16 20  1  0
 17 21  1  0
 18 22  1  0
 19 23  1  0
 20 24  1  0
  7  8  1  0
 21 24  1  0
 22 23  1  0
M  END
>  <MolRegNo>  (1) 
412790

>  <m>  (1) 
=

>  <Value>  (1) 
30000

>  <Unit>  (1) 
nM

>  <Type>  (1) 
IC50

>  <pValue>  (1) 
4.52

>  <Ligand Efficiency>  (1) 
0

>  <Binding Efficiency>  (1) 
0

>  <Surface Efficiency>  (1) 
0

>  <Assay Index>  (1) 
303145

>  <Assay Category>  (1) 


>  <Assay Organism>  (1) 
Homo sapiens

>  <Target ID>  (1) 
11365

>  <Target Name>  (1) 
Cytochrome P450 2D6

>  <Target Organism>  (1) 
Homo sapiens

>  <Target Description>  (1) 
Target is a single protein chain

>  <Sequence Accession>  (1) 
P10635

>  <Reference>  (1) 
Bioorg Med Chem Lett 17 (7), 2022-2025 (2007)

>  <Pubmed ID>  (1) 
17267217

>  <DOI>  (1) 
10.1016/j.bmcl.2007.01.020

$$$$
