4wnv_ligand_141
     RDKit          2D

 29 31  0  0  0  0  0  0  0  0999 V2000
    0.0000   -0.0000   -0.0000 S   0  0  0  0  0  0  0  0  0  0  0  0
   -1.3171   -0.7357   -0.0000 O   0  0  0  0  0  0  0  0  0  0  0  0
   -0.0119    1.5188   -0.0000 O   0  0  0  0  0  0  0  0  0  0  0  0
    1.2934   -0.7357   -0.0000 C   0  0  0  0  0  0  0  0  0  0  0  0
   -1.3171    0.7594   -0.0000 C   0  0  0  0  0  0  0  0  0  0  0  0
    2.5867    0.0237   -0.0000 C   0  0  0  0  0  0  0  0  0  0  0  0
    1.2934   -2.2189   -0.0000 C   0  0  0  0  0  0  0  0  0  0  0  0
    2.5630    1.5426   -0.0000 O   0  0  0  0  0  0  0  0  0  0  0  0
    3.8801   -0.7001   -0.0000 C   0  0  0  0  0  0  0  0  0  0  0  0
    2.5867   -2.9546   -0.0000 C   0  0  0  0  0  0  0  0  0  0  0  0
    3.8564    2.3257   -0.0000 C   0  0  0  0  0  0  0  0  0  0  0  0
    3.8682   -2.1952   -0.0000 C   0  0  0  0  0  0  0  0  0  0  0  0
    5.1498    1.5900   -0.0000 C   0  0  0  0  0  0  0  0  0  0  0  0
    5.1260    0.0949   -0.0000 O   0  0  0  0  0  0  0  0  0  0  0  0
    6.4431    2.3494   -0.0000 C   0  0  0  0  0  0  0  0  0  0  0  0
    7.7365    1.6137   -0.0000 N   0  0  0  0  0  0  0  0  0  0  0  0
    9.1723    2.0172   -0.0000 C   0  0  0  0  0  0  0  0  0  0  0  0
   10.4656    2.8003   -0.0000 C   0  0  0  0  0  0  0  0  0  0  0  0
    9.1604    3.5360   -0.0000 C   0  0  0  0  0  0  0  0  0  0  0  0
   10.6199    1.6375   -0.0000 C   0  0  0  0  0  0  0  0  0  0  0  0
   11.9133    2.4206   -0.0000 C   0  0  0  0  0  0  0  0  0  0  0  0
   13.3728    2.6698   -0.0000 N   0  0  0  0  0  0  0  0  0  0  0  0
   11.6522    0.9493   -0.0000 C   0  0  0  0  0  0  0  0  0  0  0  0
   14.0728    1.3527   -0.0000 C   0  0  0  0  0  0  0  0  0  0  0  0
   12.9930    0.2729   -0.0000 C   0  0  0  0  0  0  0  0  0  0  0  0
   15.5205    0.9730   -0.0000 C   0  0  0  0  0  0  0  0  0  0  0  0
   13.3728   -1.1747   -0.0000 C   0  0  0  0  0  0  0  0  0  0  0  0
   15.9002   -0.4746   -0.0000 C   0  0  0  0  0  0  0  0  0  0  0  0
   14.8204   -1.5544   -0.0000 C   0  0  0  0  0  0  0  0  0  0  0  0
  1  2  2  0
  1  3  2  0
  1  4  1  0
  1  5  1  0
  4  6  2  0
  4  7  1  0
  6  8  1  0
  6  9  1  0
  7 10  2  0
  8 11  1  0
  9 12  2  0
 11 13  1  0
 13 14  1  0
 13 15  1  0
 15 16  1  0
 16 17  1  0
 17 18  1  0
 17 19  1  0
 17 20  1  0
 18 21  1  0
 21 22  1  0
 21 23  2  0
 22 24  1  0
 23 25  1  0
 24 26  2  0
 25 27  2  0
 26 28  1  0
 27 29  1  0
 10 12  1  0
 24 25  1  0
 28 29  2  0
M  END
>  <MolRegNo>  (1) 
301420

>  <m>  (1) 
=

>  <Value>  (1) 
110

>  <Unit>  (1) 
nM

>  <Type>  (1) 
IC50

>  <pValue>  (1) 
6.96

>  <Ligand Efficiency>  (1) 
0

>  <Binding Efficiency>  (1) 
0

>  <Surface Efficiency>  (1) 
0

>  <Assay Index>  (1) 
238811

>  <Assay Category>  (1) 


>  <Assay Organism>  (1) 
Homo sapiens

>  <Target ID>  (1) 
11365

>  <Target Name>  (1) 
Cytochrome P450 2D6

>  <Target Organism>  (1) 
Homo sapiens

>  <Target Description>  (1) 
Target is a single protein chain

>  <Sequence Accession>  (1) 
P10635

>  <Reference>  (1) 
Bioorg Med Chem Lett 15 (17), 3816-3820 (2005)

>  <Pubmed ID>  (1) 
15993593

>  <DOI>  (1) 
10.1016/j.bmcl.2005.06.007

$$$$
