4wnv_ligand_728
     RDKit          2D

 39 42  0  0  0  0  0  0  0  0999 V2000
    0.0000   -0.0000   -0.0000 F   0  0  0  0  0  0  0  0  0  0  0  0
    1.3021   -0.7407   -0.0000 C   0  0  0  0  0  0  0  0  0  0  0  0
    2.5923    0.0239   -0.0000 C   0  0  0  0  0  0  0  0  0  0  0  0
    1.3021   -2.2459   -0.0000 C   0  0  0  0  0  0  0  0  0  0  0  0
    3.8825   -0.7168   -0.0000 C   0  0  0  0  0  0  0  0  0  0  0  0
    2.5923   -2.9746   -0.0000 C   0  0  0  0  0  0  0  0  0  0  0  0
    3.8706   -2.2101   -0.0000 C   0  0  0  0  0  0  0  0  0  0  0  0
    5.1727   -2.9507   -0.0000 C   0  0  0  0  0  0  0  0  0  0  0  0
    6.4629   -2.1862   -0.0000 C   0  0  0  0  0  0  0  0  0  0  0  0
    7.7531   -2.9268   -0.0000 C   0  0  0  0  0  0  0  0  0  0  0  0
    9.0433   -2.1623   -0.0000 N   0  0  0  0  0  0  0  0  0  0  0  0
   10.3335   -2.9029   -0.0000 C   0  0  0  0  0  0  0  0  0  0  0  0
    9.0314   -0.6451   -0.0000 C   0  0  0  0  0  0  0  0  0  0  0  0
   10.3216   -4.3962   -0.0000 C   0  0  0  0  0  0  0  0  0  0  0  0
    7.7173    0.1314   -0.0000 C   0  0  0  0  0  0  0  0  0  0  0  0
    9.0075   -5.1369   -0.0000 O   0  0  0  0  0  0  0  0  0  0  0  0
   11.6357   -5.1250   -0.0000 C   0  0  0  0  0  0  0  0  0  0  0  0
    9.0075   -6.6421   -0.0000 C   0  0  0  0  0  0  0  0  0  0  0  0
   12.9259   -4.3484   -0.0000 N   0  0  0  0  0  0  0  0  0  0  0  0
   11.6357   -6.6182   -0.0000 C   0  0  0  0  0  0  0  0  0  0  0  0
   12.9259   -5.8656   -0.0000 C   0  0  0  0  0  0  0  0  0  0  0  0
    7.6934   -7.3948   -0.0000 O   0  0  0  0  0  0  0  0  0  0  0  0
   10.3096   -7.3828   -0.0000 N   0  0  0  0  0  0  0  0  0  0  0  0
   14.2280   -5.0772   -0.0000 C   0  0  0  0  0  0  0  0  0  0  0  0
   10.3096   -8.8761   -0.0000 C   0  0  0  0  0  0  0  0  0  0  0  0
   15.5182   -4.3007   -0.0000 O   0  0  0  0  0  0  0  0  0  0  0  0
   14.2280   -6.5705   -0.0000 N   0  0  0  0  0  0  0  0  0  0  0  0
   15.5302   -7.2992   -0.0000 C   0  0  0  0  0  0  0  0  0  0  0  0
   16.8204   -6.5227   -0.0000 C   0  0  0  0  0  0  0  0  0  0  0  0
   15.5302   -8.7925   -0.0000 C   0  0  0  0  0  0  0  0  0  0  0  0
   18.1225   -7.2514   -0.0000 C   0  0  0  0  0  0  0  0  0  0  0  0
   16.8204   -9.5212   -0.0000 C   0  0  0  0  0  0  0  0  0  0  0  0
   19.4127   -6.4749   -0.0000 C   0  0  0  0  0  0  0  0  0  0  0  0
   18.1225   -8.7447   -0.0000 C   0  0  0  0  0  0  0  0  0  0  0  0
   19.5441   -4.9577   -0.0000 N   0  0  0  0  0  0  0  0  0  0  0  0
   20.7865   -7.0603   -0.0000 N   0  0  0  0  0  0  0  0  0  0  0  0
   21.0016   -4.6232   -0.0000 N   0  0  0  0  0  0  0  0  0  0  0  0
   21.7781   -5.9134   -0.0000 N   0  0  0  0  0  0  0  0  0  0  0  0
   21.0971   -8.5177   -0.0000 C   0  0  0  0  0  0  0  0  0  0  0  0
  1  2  1  0
  2  3  2  0
  2  4  1  0
  3  5  1  0
  4  6  2  0
  5  7  2  0
  7  8  1  0
  8  9  1  0
  9 10  1  0
 10 11  1  0
 11 12  1  0
 11 13  1  0
 12 14  1  0
 13 15  1  0
 14 16  1  0
 14 17  1  0
 16 18  1  0
 17 19  1  0
 17 20  1  0
 17 21  1  0
 18 22  2  0
 18 23  1  0
 19 24  1  0
 23 25  1  0
 24 26  2  0
 24 27  1  0
 27 28  1  0
 28 29  2  0
 28 30  1  0
 29 31  1  0
 30 32  2  0
 31 33  1  0
 31 34  2  0
 33 35  2  0
 33 36  1  0
 35 37  1  0
 36 38  1  0
 36 39  1  0
  6  7  1  0
 20 23  1  0
 32 34  1  0
 37 38  2  0
M  END
>  <MolRegNo>  (1) 
472539

>  <m>  (1) 
=

>  <Value>  (1) 
5900

>  <Unit>  (1) 
nM

>  <Type>  (1) 
IC50

>  <pValue>  (1) 
5.23

>  <Ligand Efficiency>  (1) 
0

>  <Binding Efficiency>  (1) 
0

>  <Surface Efficiency>  (1) 
0

>  <Assay Index>  (1) 
409097

>  <Assay Category>  (1) 


>  <Assay Organism>  (1) 


>  <Target ID>  (1) 
11365

>  <Target Name>  (1) 
Cytochrome P450 2D6

>  <Target Organism>  (1) 
Homo sapiens

>  <Target Description>  (1) 
Target is a single protein chain

>  <Sequence Accession>  (1) 
P10635

>  <Reference>  (1) 
Bioorg Med Chem Lett 19 (1), 96-99 (2009)

>  <Pubmed ID>  (1) 
19010676

>  <DOI>  (1) 
10.1016/j.bmcl.2008.11.002

$$$$
