4wnv_ligand_300
     RDKit          2D

 36 40  0  0  1  0  0  0  0  0999 V2000
    0.0000   -0.0000   -0.0000 S   0  0  0  0  0  0  0  0  0  0  0  0
   -1.0300   -1.0891   -0.0000 C   0  0  0  0  0  0  0  0  0  0  0  0
    1.3496   -0.6156   -0.0000 C   0  0  0  0  0  0  0  0  0  0  0  0
   -2.5335   -0.8997   -0.0000 C   0  0  0  0  0  0  0  0  0  0  0  0
   -0.3078   -2.3914   -0.0000 C   0  0  0  0  0  0  0  0  0  0  0  0
    2.6518    0.1302   -0.0000 C   0  0  0  0  0  0  0  0  0  0  0  0
    1.1602   -2.1073   -0.0000 C   0  0  0  0  0  0  0  0  0  0  0  0
   -3.1254    0.4972   -0.0000 C   0  0  0  0  0  0  0  0  0  0  0  0
   -3.4332   -2.0836   -0.0000 C   0  0  0  0  0  0  0  0  0  0  0  0
    2.6637    1.6456   -0.0000 O   0  0  0  0  0  0  0  0  0  0  0  0
    3.9304   -0.6274   -0.0000 N   0  0  0  0  0  0  0  0  0  0  0  0
   -4.6289    0.6866   -0.0000 C   0  0  0  0  0  0  0  0  0  0  0  0
   -4.9367   -1.8942   -0.0000 C   0  0  0  0  0  0  0  0  0  0  0  0
    5.2327    0.1184   -0.0000 C   0  0  0  0  0  0  0  0  0  0  0  0
    3.8475   -2.1191   -0.0000 C   0  0  0  0  0  0  0  0  0  0  0  0
   -5.5405   -0.5091   -0.0000 C   0  0  0  0  0  0  0  0  0  0  0  0
    6.5823   -0.4972   -0.0000 C   0  0  0  0  0  0  0  0  0  0  0  0
    5.3984    1.6219   -0.0000 C   0  0  0  0  0  0  0  0  0  0  0  0
   -7.0440   -0.3196   -0.0000 C   0  0  0  0  0  0  0  0  0  0  0  0
    7.5885    0.6156   -0.0000 N   0  0  0  0  0  0  0  0  0  0  0  0
    6.8664    1.9297   -0.0000 C   0  0  0  0  0  0  0  0  0  0  0  0
   -7.6477    1.0773   -0.0000 C   0  0  0  0  0  0  0  0  0  0  0  0
    9.0684    0.4499   -0.0000 C   0  0  0  0  0  0  0  0  0  0  0  0
    9.9562    1.6692   -0.0000 O   0  0  0  0  0  0  0  0  0  0  0  0
    9.6484   -0.9234   -0.0000 N   0  0  0  0  0  0  0  0  0  0  0  0
   11.1046   -1.2431   -0.0000 C   0  0  0  0  0  0  0  0  0  0  0  0
    8.8671   -2.2020   -0.0000 C   0  0  0  0  0  0  0  0  0  0  0  0
   11.2348   -2.7229   -0.0000 C   0  0  0  0  0  0  0  0  0  0  0  0
    9.8497   -3.3148   -0.0000 C   0  0  0  0  0  0  0  0  0  0  0  0
   12.5134   -3.4805   -0.0000 N   0  0  0  0  0  0  0  0  0  0  0  0
   13.8156   -2.7347   -0.0000 C   0  0  0  0  0  0  0  0  0  0  0  0
   15.0942   -3.4924   -0.0000 C   0  0  0  0  0  0  0  0  0  0  0  0
   13.8156   -1.2194   -0.0000 C   0  0  0  0  0  0  0  0  0  0  0  0
   16.3846   -2.7466   -0.0000 C   0  0  0  0  0  0  0  0  0  0  0  0
   15.1179   -0.4735   -0.0000 C   0  0  0  0  0  0  0  0  0  0  0  0
   16.3964   -1.2312   -0.0000 O   0  0  0  0  0  0  0  0  0  0  0  0
  1  2  1  0
  1  3  1  0
  2  4  1  0
  2  5  2  0
  3  6  1  0
  3  7  2  0
  4  8  2  0
  4  9  1  0
  6 10  2  0
  6 11  1  0
  8 12  1  0
  9 13  2  0
 14 11  1  1
 11 15  1  0
 12 16  2  0
 14 17  1  0
 14 18  1  0
 16 19  1  0
 17 20  1  0
 18 21  1  0
 19 22  1  0
 20 23  1  0
 23 24  2  0
 23 25  1  0
 25 26  1  0
 25 27  1  0
 26 28  1  0
 27 29  1  0
 28 30  1  6
 30 31  1  0
 31 32  1  0
 31 33  1  0
 32 34  1  0
 33 35  1  0
 34 36  1  0
  5  7  1  0
 13 16  1  0
 20 21  1  0
 28 29  1  0
 35 36  1  0
M  END
>  <MolRegNo>  (1) 
359597

>  <m>  (1) 
=

>  <Value>  (1) 
5100

>  <Unit>  (1) 
nM

>  <Type>  (1) 
IC50

>  <pValue>  (1) 
5.29

>  <Ligand Efficiency>  (1) 
0

>  <Binding Efficiency>  (1) 
0

>  <Surface Efficiency>  (1) 
0

>  <Assay Index>  (1) 
268140

>  <Assay Category>  (1) 


>  <Assay Organism>  (1) 
Homo sapiens

>  <Target ID>  (1) 
11365

>  <Target Name>  (1) 
Cytochrome P450 2D6

>  <Target Organism>  (1) 
Homo sapiens

>  <Target Description>  (1) 
Target is a single protein chain

>  <Sequence Accession>  (1) 
P10635

>  <Reference>  (1) 
Bioorg Med Chem Lett 16 (18), 4922-4930 (2006)

>  <Pubmed ID>  (1) 
16824755

>  <DOI>  (1) 
10.1016/j.bmcl.2006.06.049

$$$$
