4wnv_ligand_699
     RDKit          2D

 29 32  0  0  0  0  0  0  0  0999 V2000
    0.0000   -0.0000   -0.0000 S   0  0  0  0  0  0  0  0  0  0  0  0
    0.7382    1.3097   -0.0000 O   0  0  0  0  0  0  0  0  0  0  0  0
   -0.7501   -1.2978   -0.0000 O   0  0  0  0  0  0  0  0  0  0  0  0
    1.2740   -0.7382   -0.0000 N   0  0  0  0  0  0  0  0  0  0  0  0
   -1.3097    0.7620   -0.0000 C   0  0  0  0  0  0  0  0  0  0  0  0
   -1.3216    2.2860   -0.0000 C   0  0  0  0  0  0  0  0  0  0  0  0
   -2.6313    0.0238   -0.0000 C   0  0  0  0  0  0  0  0  0  0  0  0
   -2.6432    3.0361   -0.0000 C   0  0  0  0  0  0  0  0  0  0  0  0
   -3.9410    0.7858   -0.0000 C   0  0  0  0  0  0  0  0  0  0  0  0
   -2.6670    4.5482   -0.0000 N   0  0  0  0  0  0  0  0  0  0  0  0
   -3.9410    2.2979   -0.0000 C   0  0  0  0  0  0  0  0  0  0  0  0
   -1.3811    5.3221   -0.0000 C   0  0  0  0  0  0  0  0  0  0  0  0
   -0.0952    4.5839   -0.0000 N   0  0  0  0  0  0  0  0  0  0  0  0
   -1.4049    6.8223   -0.0000 N   0  0  0  0  0  0  0  0  0  0  0  0
    1.1906    5.3459   -0.0000 C   0  0  0  0  0  0  0  0  0  0  0  0
   -0.1310    7.5962   -0.0000 C   0  0  0  0  0  0  0  0  0  0  0  0
    2.4765    4.6077   -0.0000 N   0  0  0  0  0  0  0  0  0  0  0  0
    1.1668    6.8580   -0.0000 C   0  0  0  0  0  0  0  0  0  0  0  0
    3.7624    5.3697   -0.0000 C   0  0  0  0  0  0  0  0  0  0  0  0
    2.4765    3.1194   -0.0000 C   0  0  0  0  0  0  0  0  0  0  0  0
    5.0482    4.6315   -0.0000 C   0  0  0  0  0  0  0  0  0  0  0  0
    3.7386    6.8699   -0.0000 C   0  0  0  0  0  0  0  0  0  0  0  0
    6.3341    5.4054   -0.0000 C   0  0  0  0  0  0  0  0  0  0  0  0
    5.0125    7.6438   -0.0000 C   0  0  0  0  0  0  0  0  0  0  0  0
    7.7510    4.9530   -0.0000 N   0  0  0  0  0  0  0  0  0  0  0  0
    6.3222    6.9175   -0.0000 C   0  0  0  0  0  0  0  0  0  0  0  0
    8.6201    6.1793   -0.0000 N   0  0  0  0  0  0  0  0  0  0  0  0
    7.7391    7.3938   -0.0000 C   0  0  0  0  0  0  0  0  0  0  0  0
    8.1915    8.8344   -0.0000 C   0  0  0  0  0  0  0  0  0  0  0  0
  1  2  2  0
  1  3  2  0
  1  4  1  0
  1  5  1  0
  5  6  2  0
  5  7  1  0
  6  8  1  0
  7  9  2  0
  8 10  1  0
  8 11  2  0
 10 12  1  0
 12 13  2  0
 12 14  1  0
 13 15  1  0
 14 16  2  0
 15 17  1  0
 15 18  2  0
 17 19  1  0
 17 20  1  0
 19 21  2  0
 19 22  1  0
 21 23  1  0
 22 24  2  0
 23 25  1  0
 23 26  2  0
 25 27  1  0
 26 28  1  0
 28 29  1  0
  9 11  1  0
 16 18  1  0
 24 26  1  0
 27 28  2  0
M  END
>  <MolRegNo>  (1) 
490632

>  <m>  (1) 
=

>  <Value>  (1) 
4800

>  <Unit>  (1) 
nM

>  <Type>  (1) 
IC50

>  <pValue>  (1) 
5.32

>  <Ligand Efficiency>  (1) 
0

>  <Binding Efficiency>  (1) 
0

>  <Surface Efficiency>  (1) 
0

>  <Assay Index>  (1) 
338813

>  <Assay Category>  (1) 


>  <Assay Organism>  (1) 
Homo sapiens

>  <Target ID>  (1) 
11365

>  <Target Name>  (1) 
Cytochrome P450 2D6

>  <Target Organism>  (1) 
Homo sapiens

>  <Target Description>  (1) 
Target is a single protein chain

>  <Sequence Accession>  (1) 
P10635

>  <Reference>  (1) 
J Med Chem 51 (15), 4632-4640 (2008)

>  <Pubmed ID>  (1) 
18620382

>  <DOI>  (1) 
10.1021/jm800566m

$$$$
