4wnv_ligand_805
     RDKit          2D

 28 31  0  0  0  0  0  0  0  0999 V2000
    0.0000   -0.0000   -0.0000 O   0  0  0  0  0  0  0  0  0  0  0  0
    1.4433    0.3665   -0.0000 C   0  0  0  0  0  0  0  0  0  0  0  0
    2.4742   -0.6987   -0.0000 N   0  0  0  0  0  0  0  0  0  0  0  0
    1.8442    1.8213   -0.0000 C   0  0  0  0  0  0  0  0  0  0  0  0
    2.0504   -2.1306   -0.0000 C   0  0  0  0  0  0  0  0  0  0  0  0
    3.9175   -0.3322   -0.0000 C   0  0  0  0  0  0  0  0  0  0  0  0
    3.2875    2.1878   -0.0000 N   0  0  0  0  0  0  0  0  0  0  0  0
    0.7904    2.9095   -0.0000 N   0  0  0  0  0  0  0  0  0  0  0  0
    3.0813   -3.1959   -0.0000 C   0  0  0  0  0  0  0  0  0  0  0  0
    4.9484   -1.3975   -0.0000 C   0  0  0  0  0  0  0  0  0  0  0  0
    3.6884    3.6426   -0.0000 C   0  0  0  0  0  0  0  0  0  0  0  0
    1.1913    4.3642   -0.0000 C   0  0  0  0  0  0  0  0  0  0  0  0
    2.6346    4.7308   -0.0000 C   0  0  0  0  0  0  0  0  0  0  0  0
    3.0355    6.1855   -0.0000 C   0  0  0  0  0  0  0  0  0  0  0  0
    1.9817    7.2737   -0.0000 C   0  0  0  0  0  0  0  0  0  0  0  0
    4.4788    6.5521   -0.0000 C   0  0  0  0  0  0  0  0  0  0  0  0
    2.3826    8.7285   -0.0000 C   0  0  0  0  0  0  0  0  0  0  0  0
    0.5155    6.9301   -0.0000 C   0  0  0  0  0  0  0  0  0  0  0  0
    4.8797    8.0068   -0.0000 C   0  0  0  0  0  0  0  0  0  0  0  0
    3.8259    9.0950   -0.0000 O   0  0  0  0  0  0  0  0  0  0  0  0
    1.3287    9.8167   -0.0000 C   0  0  0  0  0  0  0  0  0  0  0  0
   -0.5384    8.0183   -0.0000 C   0  0  0  0  0  0  0  0  0  0  0  0
    5.2806    9.4616   -0.0000 C   0  0  0  0  0  0  0  0  0  0  0  0
    5.9106    6.9415   -0.0000 C   0  0  0  0  0  0  0  0  0  0  0  0
   -0.1375    9.4730   -0.0000 C   0  0  0  0  0  0  0  0  0  0  0  0
    6.7239    9.8281   -0.0000 C   0  0  0  0  0  0  0  0  0  0  0  0
    7.3539    7.3081   -0.0000 C   0  0  0  0  0  0  0  0  0  0  0  0
    7.7548    8.7628   -0.0000 N   0  0  0  0  0  0  0  0  0  0  0  0
  1  2  2  0
  2  3  1  0
  2  4  1  0
  3  5  1  0
  3  6  1  0
  4  7  2  0
  4  8  1  0
  5  9  1  0
  6 10  1  0
  7 11  1  0
  8 12  2  0
 11 13  2  0
 13 14  1  0
 14 15  1  0
 14 16  2  0
 15 17  2  0
 15 18  1  0
 16 19  1  0
 17 20  1  0
 17 21  1  0
 18 22  2  0
 19 23  1  0
 19 24  1  0
 21 25  2  0
 23 26  1  0
 24 27  1  0
 26 28  1  0
 12 13  1  0
 19 20  1  0
 22 25  1  0
 27 28  1  0
M  END
>  <MolRegNo>  (1) 
555682

>  <m>  (1) 
=

>  <Value>  (1) 
21000

>  <Unit>  (1) 
nM

>  <Type>  (1) 
IC50

>  <pValue>  (1) 
4.68

>  <Ligand Efficiency>  (1) 
0

>  <Binding Efficiency>  (1) 
0

>  <Surface Efficiency>  (1) 
0

>  <Assay Index>  (1) 
428577

>  <Assay Category>  (1) 


>  <Assay Organism>  (1) 
Homo sapiens

>  <Target ID>  (1) 
11365

>  <Target Name>  (1) 
Cytochrome P450 2D6

>  <Target Organism>  (1) 
Homo sapiens

>  <Target Description>  (1) 
Target is a single protein chain

>  <Sequence Accession>  (1) 
P10635

>  <Reference>  (1) 
J Med Chem 52 (18), 5685-5702 (2009)

>  <Pubmed ID>  (1) 
19694468

>  <DOI>  (1) 
10.1021/jm900773n

$$$$
