4wnv_ligand_590
     RDKit          2D

 36 39  0  0  0  0  0  0  0  0999 V2000
    0.0000   -0.0000   -0.0000 Cl  0  0  0  0  0  0  0  0  0  0  0  0
   -6.7722   -5.6435   -0.0000 F   0  0  0  0  0  0  0  0  0  0  0  0
   -6.7840   -4.1386   -0.0000 C   0  0  0  0  0  0  0  0  0  0  0  0
   -5.5024   -3.3861   -0.0000 C   0  0  0  0  0  0  0  0  0  0  0  0
   -8.0891   -3.3861   -0.0000 C   0  0  0  0  0  0  0  0  0  0  0  0
   -4.2209   -4.1268   -0.0000 F   0  0  0  0  0  0  0  0  0  0  0  0
   -5.5142   -1.8812   -0.0000 C   0  0  0  0  0  0  0  0  0  0  0  0
   -8.1008   -1.8812   -0.0000 C   0  0  0  0  0  0  0  0  0  0  0  0
   -6.8193   -1.1287   -0.0000 C   0  0  0  0  0  0  0  0  0  0  0  0
   -9.4059   -1.1287   -0.0000 N   0  0  0  0  0  0  0  0  0  0  0  0
   -9.4176    0.3762   -0.0000 C   0  0  0  0  0  0  0  0  0  0  0  0
  -10.7109   -1.8577   -0.0000 C   0  0  0  0  0  0  0  0  0  0  0  0
  -10.7227    1.1287   -0.0000 C   0  0  0  0  0  0  0  0  0  0  0  0
  -12.0160   -1.1052   -0.0000 C   0  0  0  0  0  0  0  0  0  0  0  0
  -12.0278    0.3880   -0.0000 N   0  0  0  0  0  0  0  0  0  0  0  0
  -13.3328    1.1405   -0.0000 C   0  0  0  0  0  0  0  0  0  0  0  0
  -13.3446    2.6454   -0.0000 O   0  0  0  0  0  0  0  0  0  0  0  0
  -14.6379    0.3998   -0.0000 C   0  0  0  0  0  0  0  0  0  0  0  0
  -15.9430    1.1522   -0.0000 C   0  0  0  0  0  0  0  0  0  0  0  0
  -17.2480    0.4115   -0.0000 N   0  0  0  0  0  0  0  0  0  0  0  0
  -18.5531    1.1640   -0.0000 C   0  0  0  0  0  0  0  0  0  0  0  0
  -17.2598   -1.0699   -0.0000 C   0  0  0  0  0  0  0  0  0  0  0  0
  -19.8582    0.4233   -0.0000 C   0  0  0  0  0  0  0  0  0  0  0  0
  -21.1632    1.1757   -0.0000 C   0  0  0  0  0  0  0  0  0  0  0  0
  -22.5388    0.5761   -0.0000 C   0  0  0  0  0  0  0  0  0  0  0  0
  -21.3278    2.6689   -0.0000 C   0  0  0  0  0  0  0  0  0  0  0  0
  -23.5500    1.6931   -0.0000 C   0  0  0  0  0  0  0  0  0  0  0  0
  -23.0091   -0.8348   -0.0000 C   0  0  0  0  0  0  0  0  0  0  0  0
  -22.7975    2.9864   -0.0000 C   0  0  0  0  0  0  0  0  0  0  0  0
  -20.3402    3.7859   -0.0000 C   0  0  0  0  0  0  0  0  0  0  0  0
  -25.0196    1.3991   -0.0000 C   0  0  0  0  0  0  0  0  0  0  0  0
  -24.4788   -1.1287   -0.0000 C   0  0  0  0  0  0  0  0  0  0  0  0
  -23.2678    4.4208   -0.0000 C   0  0  0  0  0  0  0  0  0  0  0  0
  -20.8105    5.2203   -0.0000 C   0  0  0  0  0  0  0  0  0  0  0  0
  -25.4899   -0.0118   -0.0000 C   0  0  0  0  0  0  0  0  0  0  0  0
  -22.2802    5.5377   -0.0000 C   0  0  0  0  0  0  0  0  0  0  0  0
  2  3  1  0
  3  4  2  0
  3  5  1  0
  4  6  1  0
  4  7  1  0
  5  8  2  0
  7  9  2  0
  8 10  1  0
 10 11  1  0
 10 12  1  0
 11 13  1  0
 12 14  1  0
 13 15  1  0
 15 16  1  0
 16 17  2  0
 16 18  1  0
 18 19  1  0
 19 20  1  0
 20 21  1  0
 20 22  1  0
 21 23  1  0
 23 24  1  0
 24 25  1  0
 24 26  1  0
 25 27  1  0
 25 28  2  0
 26 29  2  0
 26 30  1  0
 27 31  2  0
 28 32  1  0
 29 33  1  0
 30 34  2  0
 31 35  1  0
 33 36  2  0
  8  9  1  0
 14 15  1  0
 27 29  1  0
 32 35  2  0
 34 36  1  0
M  END
>  <MolRegNo>  (1) 
457760

>  <m>  (1) 
=

>  <Value>  (1) 
1300

>  <Unit>  (1) 
nM

>  <Type>  (1) 
IC50

>  <pValue>  (1) 
5.89

>  <Ligand Efficiency>  (1) 
0

>  <Binding Efficiency>  (1) 
0

>  <Surface Efficiency>  (1) 
0

>  <Assay Index>  (1) 
415422

>  <Assay Category>  (1) 


>  <Assay Organism>  (1) 
Homo sapiens

>  <Target ID>  (1) 
11365

>  <Target Name>  (1) 
Cytochrome P450 2D6

>  <Target Organism>  (1) 
Homo sapiens

>  <Target Description>  (1) 
Target is a single protein chain

>  <Sequence Accession>  (1) 
P10635

>  <Reference>  (1) 
Bioorg Med Chem Lett 19 (5), 1305-1309 (2009)

>  <Pubmed ID>  (1) 
19208473

>  <DOI>  (1) 
10.1016/j.bmcl.2009.01.072

$$$$
