4wnv_ligand_961
     RDKit          2D

 21 23  0  0  0  0  0  0  0  0999 V2000
    0.0000   -0.0000   -0.0000 N   0  0  0  0  0  0  0  0  0  0  0  0
    1.2883   -0.7276   -0.0000 C   0  0  0  0  0  0  0  0  0  0  0  0
   -0.0119    1.5269   -0.0000 C   0  0  0  0  0  0  0  0  0  0  0  0
    1.2764   -2.2187   -0.0000 N   0  0  0  0  0  0  0  0  0  0  0  0
    2.5766    0.0358   -0.0000 C   0  0  0  0  0  0  0  0  0  0  0  0
    1.2764    2.2903   -0.0000 N   0  0  0  0  0  0  0  0  0  0  0  0
   -0.0358   -2.9583   -0.0000 C   0  0  0  0  0  0  0  0  0  0  0  0
    4.0080   -0.4175   -0.0000 N   0  0  0  0  0  0  0  0  0  0  0  0
    2.5646    1.5626   -0.0000 C   0  0  0  0  0  0  0  0  0  0  0  0
   -0.0477   -4.4494   -0.0000 C   0  0  0  0  0  0  0  0  0  0  0  0
    4.8788    0.8231   -0.0000 C   0  0  0  0  0  0  0  0  0  0  0  0
    3.9961    2.0398   -0.0000 C   0  0  0  0  0  0  0  0  0  0  0  0
    1.2406   -5.1770   -0.0000 C   0  0  0  0  0  0  0  0  0  0  0  0
   -1.3599   -5.1770   -0.0000 C   0  0  0  0  0  0  0  0  0  0  0  0
    6.3699    0.8469   -0.0000 C   0  0  0  0  0  0  0  0  0  0  0  0
    4.4374    3.4831   -0.0000 C   0  0  0  0  0  0  0  0  0  0  0  0
    1.2406   -6.6562   -0.0000 C   0  0  0  0  0  0  0  0  0  0  0  0
    2.5289   -4.4136   -0.0000 C   0  0  0  0  0  0  0  0  0  0  0  0
   -1.3718   -6.6681   -0.0000 C   0  0  0  0  0  0  0  0  0  0  0  0
   -2.6720   -4.4136   -0.0000 C   0  0  0  0  0  0  0  0  0  0  0  0
   -0.0716   -7.4077   -0.0000 C   0  0  0  0  0  0  0  0  0  0  0  0
  1  2  2  0
  1  3  1  0
  2  4  1  0
  2  5  1  0
  3  6  2  0
  4  7  1  0
  5  8  1  0
  5  9  2  0
  7 10  1  0
  8 11  1  0
  9 12  1  0
 10 13  2  0
 10 14  1  0
 11 15  1  0
 12 16  1  0
 13 17  1  0
 13 18  1  0
 14 19  2  0
 14 20  1  0
 17 21  2  0
  6  9  1  0
 11 12  2  0
 19 21  1  0
M  END
>  <MolRegNo>  (1) 
611511

>  <m>  (1) 
=

>  <Value>  (1) 
300

>  <Unit>  (1) 
nM

>  <Type>  (1) 
IC50

>  <pValue>  (1) 
6.52

>  <Ligand Efficiency>  (1) 
0

>  <Binding Efficiency>  (1) 
0

>  <Surface Efficiency>  (1) 
0

>  <Assay Index>  (1) 
464697

>  <Assay Category>  (1) 


>  <Assay Organism>  (1) 


>  <Target ID>  (1) 
11365

>  <Target Name>  (1) 
Cytochrome P450 2D6

>  <Target Organism>  (1) 
Homo sapiens

>  <Target Description>  (1) 
Target is a single protein chain

>  <Sequence Accession>  (1) 
P10635

>  <Reference>  (1) 
Bioorg Med Chem Lett 19 (23), 6813-6817 (2009)

>  <Pubmed ID>  (1) 
19846298

>  <DOI>  (1) 
10.1016/j.bmcl.2009.07.002

$$$$
