4wnv_ligand_52
     RDKit          2D

 17 18  0  0  0  0  0  0  0  0999 V2000
    0.0000   -0.0000   -0.0000 O   0  0  0  0  0  0  0  0  0  0  0  0
   -1.3047   -0.7354   -0.0000 C   0  0  0  0  0  0  0  0  0  0  0  0
   -2.6212    0.0474   -0.0000 O   0  0  0  0  0  0  0  0  0  0  0  0
   -1.3166   -2.2298   -0.0000 C   0  0  0  0  0  0  0  0  0  0  0  0
   -3.9259   -0.7116   -0.0000 C   0  0  0  0  0  0  0  0  0  0  0  0
   -2.6331   -2.9652   -0.0000 C   0  0  0  0  0  0  0  0  0  0  0  0
   -3.9497   -2.2061   -0.0000 C   0  0  0  0  0  0  0  0  0  0  0  0
   -5.2306    0.0474   -0.0000 C   0  0  0  0  0  0  0  0  0  0  0  0
   -2.6450   -4.4478   -0.0000 C   0  0  0  0  0  0  0  0  0  0  0  0
   -5.2543   -2.9296   -0.0000 C   0  0  0  0  0  0  0  0  0  0  0  0
   -6.5353   -0.6879   -0.0000 C   0  0  0  0  0  0  0  0  0  0  0  0
   -1.3640   -5.1950   -0.0000 N   0  0  0  0  0  0  0  0  0  0  0  0
   -6.5590   -2.1705   -0.0000 C   0  0  0  0  0  0  0  0  0  0  0  0
   -7.8400    0.0712   -0.0000 O   0  0  0  0  0  0  0  0  0  0  0  0
   -1.3759   -6.6776   -0.0000 C   0  0  0  0  0  0  0  0  0  0  0  0
   -0.0830   -4.4359   -0.0000 C   0  0  0  0  0  0  0  0  0  0  0  0
   -7.8519    1.5775   -0.0000 C   0  0  0  0  0  0  0  0  0  0  0  0
  1  2  2  0
  2  3  1  0
  2  4  1  0
  3  5  1  0
  4  6  2  0
  5  7  2  0
  5  8  1  0
  6  9  1  0
  7 10  1  0
  8 11  2  0
  9 12  1  0
 10 13  2  0
 11 14  1  0
 12 15  1  0
 12 16  1  0
 14 17  1  0
  6  7  1  0
 11 13  1  0
M  END
>  <MolRegNo>  (1) 
282510

>  <m>  (1) 
=

>  <Value>  (1) 
74200

>  <Unit>  (1) 
nM

>  <Type>  (1) 
IC50

>  <pValue>  (1) 
4.13

>  <Ligand Efficiency>  (1) 
0

>  <Binding Efficiency>  (1) 
0

>  <Surface Efficiency>  (1) 
0

>  <Assay Index>  (1) 
51626

>  <Assay Category>  (1) 


>  <Assay Organism>  (1) 
Homo sapiens

>  <Target ID>  (1) 
11365

>  <Target Name>  (1) 
Cytochrome P450 2D6

>  <Target Organism>  (1) 
Homo sapiens

>  <Target Description>  (1) 
Target is a single protein chain

>  <Sequence Accession>  (1) 
P10635

>  <Reference>  (1) 
J Med Chem 46 (1), 74-86 (2003)

>  <Pubmed ID>  (1) 
12502361

>  <DOI>  (1) 
10.1021/jm0209578

$$$$
