4wnv_ligand_44
     RDKit          2D

 17 18  0  0  0  0  0  0  0  0999 V2000
    0.0000   -0.0000   -0.0000 O   0  0  0  0  0  0  0  0  0  0  0  0
    1.2904    0.7577   -0.0000 C   0  0  0  0  0  0  0  0  0  0  0  0
   -1.3141    0.7577   -0.0000 C   0  0  0  0  0  0  0  0  0  0  0  0
    1.2786    2.2731   -0.0000 C   0  0  0  0  0  0  0  0  0  0  0  0
    2.5809    0.0237   -0.0000 C   0  0  0  0  0  0  0  0  0  0  0  0
   -2.6282    0.0237   -0.0000 C   0  0  0  0  0  0  0  0  0  0  0  0
    2.5690    3.0308   -0.0000 C   0  0  0  0  0  0  0  0  0  0  0  0
    3.8713    0.7814   -0.0000 C   0  0  0  0  0  0  0  0  0  0  0  0
   -3.9424    0.7814   -0.0000 C   0  0  0  0  0  0  0  0  0  0  0  0
    3.8713    2.2968   -0.0000 C   0  0  0  0  0  0  0  0  0  0  0  0
   -5.2683    0.0474   -0.0000 C   0  0  0  0  0  0  0  0  0  0  0  0
    5.1381    3.0544   -0.0000 C   0  0  0  0  0  0  0  0  0  0  0  0
    5.2802    4.5580   -0.0000 N   0  0  0  0  0  0  0  0  0  0  0  0
    6.4877    2.4625   -0.0000 C   0  0  0  0  0  0  0  0  0  0  0  0
    6.7245    4.8895   -0.0000 N   0  0  0  0  0  0  0  0  0  0  0  0
    7.4822    3.6109   -0.0000 C   0  0  0  0  0  0  0  0  0  0  0  0
    8.9739    3.4688   -0.0000 C   0  0  0  0  0  0  0  0  0  0  0  0
  1  2  1  0
  1  3  1  0
  2  4  2  0
  2  5  1  0
  3  6  1  0
  4  7  1  0
  5  8  2  0
  6  9  1  0
  7 10  2  0
  9 11  1  0
 10 12  1  0
 12 13  2  0
 12 14  1  0
 13 15  1  0
 14 16  2  0
 16 17  1  0
  8 10  1  0
 15 16  1  0
M  END
>  <MolRegNo>  (1) 
251511

>  <m>  (1) 
=

>  <Value>  (1) 
81600

>  <Unit>  (1) 
nM

>  <Type>  (1) 
IC50

>  <pValue>  (1) 
4.09

>  <Ligand Efficiency>  (1) 
0

>  <Binding Efficiency>  (1) 
0

>  <Surface Efficiency>  (1) 
0

>  <Assay Index>  (1) 
51627

>  <Assay Category>  (1) 


>  <Assay Organism>  (1) 


>  <Target ID>  (1) 
11365

>  <Target Name>  (1) 
Cytochrome P450 2D6

>  <Target Organism>  (1) 
Homo sapiens

>  <Target Description>  (1) 
Target is a single protein chain

>  <Sequence Accession>  (1) 
P10635

>  <Reference>  (1) 
J Med Chem 46 (25), 5416-5427 (2003)

>  <Pubmed ID>  (1) 
14640550

>  <DOI>  (1) 
10.1021/jm020557k

$$$$
