4wnv_ligand_1012
     RDKit          2D

 23 25  0  0  0  0  0  0  0  0999 V2000
    0.0000   -0.0000   -0.0000 Cl  0  0  0  0  0  0  0  0  0  0  0  0
   -1.3170    0.7356   -0.0000 C   0  0  0  0  0  0  0  0  0  0  0  0
   -1.3526    2.2306   -0.0000 C   0  0  0  0  0  0  0  0  0  0  0  0
   -2.6103   -0.0237   -0.0000 C   0  0  0  0  0  0  0  0  0  0  0  0
   -2.6577    2.9662   -0.0000 N   0  0  0  0  0  0  0  0  0  0  0  0
   -0.0831    3.0137   -0.0000 C   0  0  0  0  0  0  0  0  0  0  0  0
   -3.9273    0.7119   -0.0000 C   0  0  0  0  0  0  0  0  0  0  0  0
   -3.9510    2.2187   -0.0000 C   0  0  0  0  0  0  0  0  0  0  0  0
   -0.4153    4.4849   -0.0000 C   0  0  0  0  0  0  0  0  0  0  0  0
    1.2933    2.4916   -0.0000 C   0  0  0  0  0  0  0  0  0  0  0  0
   -1.8628    4.9595   -0.0000 C   0  0  0  0  0  0  0  0  0  0  0  0
    0.4509    5.7308   -0.0000 C   0  0  0  0  0  0  0  0  0  0  0  0
   -1.8865    6.4782   -0.0000 C   0  0  0  0  0  0  0  0  0  0  0  0
   -3.1679    4.2239   -0.0000 C   0  0  0  0  0  0  0  0  0  0  0  0
   -0.4509    6.9528   -0.0000 S   0  0  0  0  0  0  0  0  0  0  0  0
    1.9340    5.7426   -0.0000 C   0  0  0  0  0  0  0  0  0  0  0  0
   -3.1917    7.2257   -0.0000 C   0  0  0  0  0  0  0  0  0  0  0  0
   -4.4731    4.9833   -0.0000 C   0  0  0  0  0  0  0  0  0  0  0  0
    2.6696    4.4612   -0.0000 C   0  0  0  0  0  0  0  0  0  0  0  0
   -4.4849    6.4901   -0.0000 C   0  0  0  0  0  0  0  0  0  0  0  0
    4.1527    4.4731   -0.0000 N   0  0  0  0  0  0  0  0  0  0  0  0
    4.8883    3.1917   -0.0000 C   0  0  0  0  0  0  0  0  0  0  0  0
    4.8883    5.7782   -0.0000 C   0  0  0  0  0  0  0  0  0  0  0  0
  1  2  1  0
  2  3  2  0
  2  4  1  0
  3  5  1  0
  3  6  1  0
  4  7  2  0
  5  8  2  0
  6  9  1  0
  6 10  1  6
  9 11  1  0
  9 12  2  0
 11 13  2  0
 11 14  1  0
 12 15  1  0
 12 16  1  0
 13 17  1  0
 14 18  2  0
 16 19  1  0
 17 20  2  0
 19 21  1  0
 21 22  1  0
 21 23  1  0
  7  8  1  0
 13 15  1  0
 18 20  1  0
M  END
>  <MolRegNo>  (1) 
620077

>  <m>  (1) 
=

>  <Value>  (1) 
1500

>  <Unit>  (1) 
nM

>  <Type>  (1) 
IC50

>  <pValue>  (1) 
5.82

>  <Ligand Efficiency>  (1) 
0

>  <Binding Efficiency>  (1) 
0

>  <Surface Efficiency>  (1) 
0

>  <Assay Index>  (1) 
469728

>  <Assay Category>  (1) 


>  <Assay Organism>  (1) 


>  <Target ID>  (1) 
11365

>  <Target Name>  (1) 
Cytochrome P450 2D6

>  <Target Organism>  (1) 
Homo sapiens

>  <Target Description>  (1) 
Target is a single protein chain

>  <Sequence Accession>  (1) 
P10635

>  <Reference>  (1) 
Bioorg Med Chem Lett 20 (7), 2316-2320 (2010)

>  <Pubmed ID>  (1) 
20188547

>  <DOI>  (1) 
10.1016/j.bmcl.2010.01.134

$$$$
