4wnv_ligand_232
     RDKit          2D

 32 34  0  0  1  0  0  0  0  0999 V2000
    0.0000   -0.0000   -0.0000 S   0  0  0  0  0  0  0  0  0  0  0  0
    0.7350   -1.2923   -0.0000 O   0  0  0  0  0  0  0  0  0  0  0  0
   -0.7469    1.3160   -0.0000 O   0  0  0  0  0  0  0  0  0  0  0  0
    1.2923    0.7588   -0.0000 N   0  0  0  0  0  0  0  0  0  0  0  0
   -1.3278   -0.7350   -0.0000 C   0  0  0  0  0  0  0  0  0  0  0  0
    2.5845    0.0237   -0.0000 C   0  0  0  0  0  0  0  0  0  0  0  0
    3.8768    0.7825   -0.0000 C   0  0  0  0  0  0  0  0  0  0  0  0
    3.8649    2.3000   -0.0000 C   0  0  0  0  0  0  0  0  0  0  0  0
    5.1690    0.0474   -0.0000 C   0  0  0  0  0  0  0  0  0  0  0  0
    5.1453    3.0587   -0.0000 C   0  0  0  0  0  0  0  0  0  0  0  0
    6.4613    0.8062   -0.0000 C   0  0  0  0  0  0  0  0  0  0  0  0
    6.4376    2.3237   -0.0000 C   0  0  0  0  0  0  0  0  0  0  0  0
    7.7180    3.0943   -0.0000 N   0  0  0  0  0  0  0  0  0  0  0  0
    9.0103    2.3593   -0.0000 C   0  0  0  0  0  0  0  0  0  0  0  0
   10.2907    3.1299   -0.0000 C   0  0  0  0  0  0  0  0  0  0  0  0
   10.2788    4.6474   -0.0000 O   0  0  0  0  0  0  0  0  0  0  0  0
   11.5829    2.3948   -0.0000 N   0  0  0  0  0  0  0  0  0  0  0  0
   12.8633    3.1654   -0.0000 C   0  0  0  0  0  0  0  0  0  0  0  0
   11.5711    0.9010   -0.0000 C   0  0  0  0  0  0  0  0  0  0  0  0
   12.8515    4.6830   -0.0000 C   0  0  0  0  0  0  0  0  0  0  0  0
   14.1556    2.4304   -0.0000 C   0  0  0  0  0  0  0  0  0  0  0  0
   14.1319    5.4417   -0.0000 C   0  0  0  0  0  0  0  0  0  0  0  0
   11.5355    5.4299   -0.0000 C   0  0  0  0  0  0  0  0  0  0  0  0
   15.4360    3.2010   -0.0000 N   0  0  0  0  0  0  0  0  0  0  0  0
   14.1200    6.9592   -0.0000 C   0  0  0  0  0  0  0  0  0  0  0  0
   11.5118    6.9355   -0.0000 C   0  0  0  0  0  0  0  0  0  0  0  0
   16.7994    2.6082   -0.0000 C   0  0  0  0  0  0  0  0  0  0  0  0
   15.5783    4.7067   -0.0000 C   0  0  0  0  0  0  0  0  0  0  0  0
   12.8040    7.7180   -0.0000 C   0  0  0  0  0  0  0  0  0  0  0  0
   17.7834    3.7345   -0.0000 C   0  0  0  0  0  0  0  0  0  0  0  0
   17.0365    5.0386   -0.0000 C   0  0  0  0  0  0  0  0  0  0  0  0
   19.2653    3.5922   -0.0000 O   0  0  0  0  0  0  0  0  0  0  0  0
  1  2  2  0
  1  3  2  0
  1  4  1  0
  1  5  1  0
  4  6  1  0
  6  7  1  0
  7  8  2  0
  7  9  1  0
  8 10  1  0
  9 11  2  0
 10 12  2  0
 12 13  1  0
 13 14  1  0
 14 15  1  0
 15 16  2  0
 15 17  1  0
 18 17  1  0
 17 19  1  0
 18 20  1  0
 18 21  1  1
 20 22  2  0
 20 23  1  0
 21 24  1  0
 22 25  1  0
 23 26  2  0
 24 27  1  0
 24 28  1  0
 25 29  2  0
 27 30  1  0
 28 31  1  0
 30 32  1  6
 11 12  1  0
 26 29  1  0
 30 31  1  0
M  END
>  <MolRegNo>  (1) 
338009

>  <m>  (1) 
=

>  <Value>  (1) 
8000

>  <Unit>  (1) 
nM

>  <Type>  (1) 
IC50

>  <pValue>  (1) 
5.1

>  <Ligand Efficiency>  (1) 
0

>  <Binding Efficiency>  (1) 
0

>  <Surface Efficiency>  (1) 
0

>  <Assay Index>  (1) 
257094

>  <Assay Category>  (1) 


>  <Assay Organism>  (1) 
Homo sapiens

>  <Target ID>  (1) 
11365

>  <Target Name>  (1) 
Cytochrome P450 2D6

>  <Target Organism>  (1) 
Homo sapiens

>  <Target Description>  (1) 
Target is a single protein chain

>  <Sequence Accession>  (1) 
P10635

>  <Reference>  (1) 
Bioorg Med Chem Lett 16 (3), 645-648 (2006)

>  <Pubmed ID>  (1) 
16263278

>  <DOI>  (1) 
10.1016/j.bmcl.2005.10.034

$$$$
