4wnv_ligand_460
     RDKit          2D

 33 36  0  0  1  0  0  0  0  0999 V2000
    0.0000   -0.0000   -0.0000 S   0  0  0  0  0  0  0  0  0  0  0  0
    1.2039    0.8940   -0.0000 C   0  0  0  0  0  0  0  0  0  0  0  0
    0.4529   -1.4184   -0.0000 C   0  0  0  0  0  0  0  0  0  0  0  0
    2.4078    0.0238   -0.0000 N   0  0  0  0  0  0  0  0  0  0  0  0
    1.1920    2.4078   -0.0000 N   0  0  0  0  0  0  0  0  0  0  0  0
    1.9429   -1.4065   -0.0000 C   0  0  0  0  0  0  0  0  0  0  0  0
   -0.3338   -2.6819   -0.0000 C   0  0  0  0  0  0  0  0  0  0  0  0
   -0.1192    3.1826   -0.0000 C   0  0  0  0  0  0  0  0  0  0  0  0
    2.8131   -2.5985   -0.0000 C   0  0  0  0  0  0  0  0  0  0  0  0
   -1.8476   -2.6462   -0.0000 O   0  0  0  0  0  0  0  0  0  0  0  0
    0.3814   -3.9812   -0.0000 C   0  0  0  0  0  0  0  0  0  0  0  0
   -1.4304    2.4435   -0.0000 O   0  0  0  0  0  0  0  0  0  0  0  0
   -0.1311    4.6964   -0.0000 N   0  0  0  0  0  0  0  0  0  0  0  0
   -1.4423    5.4473   -0.0000 C   0  0  0  0  0  0  0  0  0  0  0  0
   -1.4542    6.9730   -0.0000 C   0  0  0  0  0  0  0  0  0  0  0  0
   -2.8965    4.9944   -0.0000 C   0  0  0  0  0  0  0  0  0  0  0  0
   -2.9084    7.4498   -0.0000 C   0  0  0  0  0  0  0  0  0  0  0  0
   -0.1550    7.7359   -0.0000 C   0  0  0  0  0  0  0  0  0  0  0  0
   -3.8024    6.2340   -0.0000 N   0  0  0  0  0  0  0  0  0  0  0  0
    1.1324    6.9850   -0.0000 N   0  0  0  0  0  0  0  0  0  0  0  0
    2.4197    7.7478   -0.0000 C   0  0  0  0  0  0  0  0  0  0  0  0
    1.1205    5.4831   -0.0000 C   0  0  0  0  0  0  0  0  0  0  0  0
    3.7070    6.9969   -0.0000 C   0  0  0  0  0  0  0  0  0  0  0  0
    2.4078    4.7440   -0.0000 C   0  0  0  0  0  0  0  0  0  0  0  0
    3.6832    5.5069   -0.0000 C   0  0  0  0  0  0  0  0  0  0  0  0
    5.0063    7.7597   -0.0000 C   0  0  0  0  0  0  0  0  0  0  0  0
    6.2936    7.0088   -0.0000 C   0  0  0  0  0  0  0  0  0  0  0  0
    6.2579    5.5188   -0.0000 C   0  0  0  0  0  0  0  0  0  0  0  0
    7.5809    7.7717   -0.0000 C   0  0  0  0  0  0  0  0  0  0  0  0
    7.5452    4.7798   -0.0000 C   0  0  0  0  0  0  0  0  0  0  0  0
    8.8683    7.0207   -0.0000 C   0  0  0  0  0  0  0  0  0  0  0  0
    8.8444    5.5307   -0.0000 C   0  0  0  0  0  0  0  0  0  0  0  0
   10.1318    4.7917   -0.0000 F   0  0  0  0  0  0  0  0  0  0  0  0
  1  2  1  0
  1  3  1  0
  2  4  2  0
  2  5  1  0
  3  6  2  0
  3  7  1  0
  5  8  1  0
  6  9  1  0
  7 10  2  0
  7 11  1  0
  8 12  2  0
  8 13  1  0
 14 13  1  6
 14 15  1  0
 14 16  1  0
 15 17  1  0
 15 18  1  1
 16 19  1  0
 18 20  1  0
 20 21  1  0
 20 22  1  0
 21 23  1  0
 22 24  1  0
 23 25  1  0
 23 26  1  6
 26 27  1  0
 27 28  2  0
 27 29  1  0
 28 30  1  0
 29 31  2  0
 30 32  2  0
 32 33  1  0
  4  6  1  0
 17 19  1  0
 24 25  1  0
 31 32  1  0
M  END
>  <MolRegNo>  (1) 
421473

>  <m>  (1) 
=

>  <Value>  (1) 
28000

>  <Unit>  (1) 
nM

>  <Type>  (1) 
IC50

>  <pValue>  (1) 
4.55

>  <Ligand Efficiency>  (1) 
0

>  <Binding Efficiency>  (1) 
0

>  <Surface Efficiency>  (1) 
0

>  <Assay Index>  (1) 
307824

>  <Assay Category>  (1) 


>  <Assay Organism>  (1) 
Homo sapiens

>  <Target ID>  (1) 
11365

>  <Target Name>  (1) 
Cytochrome P450 2D6

>  <Target Organism>  (1) 
Homo sapiens

>  <Target Description>  (1) 
Target is a single protein chain

>  <Sequence Accession>  (1) 
P10635

>  <Reference>  (1) 
Bioorg Med Chem Lett 17 (11), 2992-2997 (2007)

>  <Pubmed ID>  (1) 
17418570

>  <DOI>  (1) 
10.1016/j.bmcl.2007.03.065

$$$$
