4wnv_ligand_628
     RDKit          2D

 22 25  0  0  0  0  0  0  0  0999 V2000
    0.0000   -0.0000   -0.0000 N   0  0  0  0  0  0  0  0  0  0  0  0
   -1.4433    0.4732   -0.0000 C   0  0  0  0  0  0  0  0  0  0  0  0
    0.8754    1.2303   -0.0000 C   0  0  0  0  0  0  0  0  0  0  0  0
   -1.4551    1.9875   -0.0000 C   0  0  0  0  0  0  0  0  0  0  0  0
   -2.7446   -0.2603   -0.0000 C   0  0  0  0  0  0  0  0  0  0  0  0
   -0.0237    2.4607   -0.0000 C   0  0  0  0  0  0  0  0  0  0  0  0
   -2.7564    2.7564   -0.0000 C   0  0  0  0  0  0  0  0  0  0  0  0
   -4.0459    0.4969   -0.0000 C   0  0  0  0  0  0  0  0  0  0  0  0
   -4.0578    2.0111   -0.0000 C   0  0  0  0  0  0  0  0  0  0  0  0
   -5.3591    2.7683   -0.0000 C   0  0  0  0  0  0  0  0  0  0  0  0
   -6.7314    2.1768   -0.0000 C   0  0  0  0  0  0  0  0  0  0  0  0
   -5.5247    4.2589   -0.0000 C   0  0  0  0  0  0  0  0  0  0  0  0
   -4.0814    3.5372   -0.0000 C   0  0  0  0  0  0  0  0  0  0  0  0
   -7.7370    3.3006   -0.0000 N   0  0  0  0  0  0  0  0  0  0  0  0
   -6.9916    4.5783   -0.0000 C   0  0  0  0  0  0  0  0  0  0  0  0
   -4.1051    5.0397   -0.0000 C   0  0  0  0  0  0  0  0  0  0  0  0
   -2.8274    5.8086   -0.0000 C   0  0  0  0  0  0  0  0  0  0  0  0
   -1.5498    5.0752   -0.0000 C   0  0  0  0  0  0  0  0  0  0  0  0
   -2.8629    7.2992   -0.0000 C   0  0  0  0  0  0  0  0  0  0  0  0
   -0.2721    5.8441   -0.0000 C   0  0  0  0  0  0  0  0  0  0  0  0
   -1.5971    8.0682   -0.0000 C   0  0  0  0  0  0  0  0  0  0  0  0
   -0.2958    7.3466   -0.0000 C   0  0  0  0  0  0  0  0  0  0  0  0
  1  2  1  0
  1  3  1  0
  2  4  2  0
  2  5  1  0
  3  6  2  0
  4  7  1  0
  5  8  2  0
  7  9  2  0
  9 10  1  0
 10 11  1  0
 10 12  1  0
 10 13  1  0
 11 14  1  0
 12 15  1  0
 13 16  1  0
 16 17  1  0
 17 18  2  0
 17 19  1  0
 18 20  1  0
 19 21  2  0
 20 22  2  0
  4  6  1  0
  8  9  1  0
 14 15  1  0
 21 22  1  0
M  END
>  <MolRegNo>  (1) 
515243

>  <m>  (1) 
=

>  <Value>  (1) 
300

>  <Unit>  (1) 
nM

>  <Type>  (1) 
IC50

>  <pValue>  (1) 
6.52

>  <Ligand Efficiency>  (1) 
0

>  <Binding Efficiency>  (1) 
0

>  <Surface Efficiency>  (1) 
0

>  <Assay Index>  (1) 
342264

>  <Assay Category>  (1) 


>  <Assay Organism>  (1) 


>  <Target ID>  (1) 
11365

>  <Target Name>  (1) 
Cytochrome P450 2D6

>  <Target Organism>  (1) 
Homo sapiens

>  <Target Description>  (1) 
Target is a single protein chain

>  <Sequence Accession>  (1) 
P10635

>  <Reference>  (1) 
Bioorg Med Chem Lett 18 (23), 6062-6066 (2008)

>  <Pubmed ID>  (1) 
18954985

>  <DOI>  (1) 
10.1016/j.bmcl.2008.10.025

$$$$
