4wnv_ligand_965
     RDKit          2D

 33 37  0  0  0  0  0  0  0  0999 V2000
    0.0000   -0.0000   -0.0000 S   0  0  0  0  0  0  0  0  0  0  0  0
    0.7053    1.2846   -0.0000 O   0  0  0  0  0  0  0  0  0  0  0  0
   -0.7556    1.2846   -0.0000 O   0  0  0  0  0  0  0  0  0  0  0  0
    1.2594   -0.7179   -0.0000 N   0  0  0  0  0  0  0  0  0  0  0  0
   -1.2846   -0.7053   -0.0000 C   0  0  0  0  0  0  0  0  0  0  0  0
    2.5188    0.0252   -0.0000 C   0  0  0  0  0  0  0  0  0  0  0  0
   -2.5566    0.0504   -0.0000 C   0  0  0  0  0  0  0  0  0  0  0  0
   -1.3098   -2.1536   -0.0000 C   0  0  0  0  0  0  0  0  0  0  0  0
    3.7656   -0.6927   -0.0000 C   0  0  0  0  0  0  0  0  0  0  0  0
    2.5062    1.5113   -0.0000 C   0  0  0  0  0  0  0  0  0  0  0  0
   -3.8412   -0.6675   -0.0000 C   0  0  0  0  0  0  0  0  0  0  0  0
   -2.5944   -2.8715   -0.0000 C   0  0  0  0  0  0  0  0  0  0  0  0
    5.0376    0.0504   -0.0000 C   0  0  0  0  0  0  0  0  0  0  0  0
    3.7530    2.2543   -0.0000 C   0  0  0  0  0  0  0  0  0  0  0  0
   -3.8664   -2.1158   -0.0000 C   0  0  0  0  0  0  0  0  0  0  0  0
   -5.1006    0.0882   -0.0000 C   0  0  0  0  0  0  0  0  0  0  0  0
    5.0125    1.5365   -0.0000 C   0  0  0  0  0  0  0  0  0  0  0  0
    6.2845   -0.9320   -0.0000 C   0  0  0  0  0  0  0  0  0  0  0  0
   -5.1384   -2.8211   -0.0000 O   0  0  0  0  0  0  0  0  0  0  0  0
   -6.3852   -0.6171   -0.0000 C   0  0  0  0  0  0  0  0  0  0  0  0
    6.1711    2.5062   -0.0000 C   0  0  0  0  0  0  0  0  0  0  0  0
    7.7706   -0.5667   -0.0000 C   0  0  0  0  0  0  0  0  0  0  0  0
   -6.4104   -2.0654   -0.0000 C   0  0  0  0  0  0  0  0  0  0  0  0
    7.6446    2.2669   -0.0000 C   0  0  0  0  0  0  0  0  0  0  0  0
    8.4003    0.8690   -0.0000 N   0  0  0  0  0  0  0  0  0  0  0  0
   -7.6950   -1.3224   -0.0000 C   0  0  0  0  0  0  0  0  0  0  0  0
   -7.1660   -3.3123   -0.0000 C   0  0  0  0  0  0  0  0  0  0  0  0
    9.9745    0.9320   -0.0000 C   0  0  0  0  0  0  0  0  0  0  0  0
   10.8057   -0.4030   -0.0000 C   0  0  0  0  0  0  0  0  0  0  0  0
   12.3926   -0.3400   -0.0000 N   0  0  0  0  0  0  0  0  0  0  0  0
   10.3524   -1.9143   -0.0000 C   0  0  0  0  0  0  0  0  0  0  0  0
   12.9090   -1.8261   -0.0000 N   0  0  0  0  0  0  0  0  0  0  0  0
   11.6496   -2.7959   -0.0000 C   0  0  0  0  0  0  0  0  0  0  0  0
  1  2  2  0
  1  3  2  0
  1  4  1  0
  1  5  1  0
  4  6  1  0
  5  7  2  0
  5  8  1  0
  6  9  2  0
  6 10  1  0
  7 11  1  0
  8 12  2  0
  9 13  1  0
 10 14  2  0
 11 15  2  0
 11 16  1  0
 13 17  2  0
 13 18  1  0
 15 19  1  0
 16 20  1  0
 17 21  1  0
 18 22  1  0
 19 23  1  0
 21 24  1  0
 22 25  1  0
 23 26  1  0
 23 27  1  0
 25 28  1  0
 28 29  1  0
 29 30  2  0
 29 31  1  0
 30 32  1  0
 31 33  2  0
 12 15  1  0
 14 17  1  0
 20 23  1  0
 24 25  1  0
 32 33  1  0
M  END
>  <MolRegNo>  (1) 
617403

>  <m>  (1) 
=

>  <Value>  (1) 
500

>  <Unit>  (1) 
nM

>  <Type>  (1) 
IC50

>  <pValue>  (1) 
6.3

>  <Ligand Efficiency>  (1) 
0

>  <Binding Efficiency>  (1) 
0

>  <Surface Efficiency>  (1) 
0

>  <Assay Index>  (1) 
468007

>  <Assay Category>  (1) 


>  <Assay Organism>  (1) 
Homo sapiens

>  <Target ID>  (1) 
11365

>  <Target Name>  (1) 
Cytochrome P450 2D6

>  <Target Organism>  (1) 
Homo sapiens

>  <Target Description>  (1) 
Target is a single protein chain

>  <Sequence Accession>  (1) 
P10635

>  <Reference>  (1) 
Bioorg Med Chem Lett 19 (22), 6452-6458 (2009)

>  <Pubmed ID>  (1) 
19804969

>  <DOI>  (1) 
10.1016/j.bmcl.2009.09.027

$$$$
