4wnv_ligand_92
     RDKit          2D

 13 14  0  0  0  0  0  0  0  0999 V2000
    0.0000   -0.0000   -0.0000 N   0  0  0  0  0  0  0  0  0  0  0  0
    1.3139   -0.7594   -0.0000 C   0  0  0  0  0  0  0  0  0  0  0  0
   -0.0121    1.5430   -0.0000 C   0  0  0  0  0  0  0  0  0  0  0  0
    2.6278    0.0121   -0.0000 C   0  0  0  0  0  0  0  0  0  0  0  0
    1.3019    2.3144   -0.0000 C   0  0  0  0  0  0  0  0  0  0  0  0
    3.9418   -0.7474   -0.0000 C   0  0  0  0  0  0  0  0  0  0  0  0
    2.6158    1.5550   -0.0000 C   0  0  0  0  0  0  0  0  0  0  0  0
    5.3160   -0.1085   -0.0000 N   0  0  0  0  0  0  0  0  0  0  0  0
    4.0623   -2.2421   -0.0000 C   0  0  0  0  0  0  0  0  0  0  0  0
    6.3285   -1.2416   -0.0000 C   0  0  0  0  0  0  0  0  0  0  0  0
    5.5450   -2.5555   -0.0000 N   0  0  0  0  0  0  0  0  0  0  0  0
    6.1477   -3.9418   -0.0000 C   0  0  0  0  0  0  0  0  0  0  0  0
    5.4124   -4.9182   -0.0000 C   0  0  0  0  0  0  0  0  0  0  0  0
  1  2  2  0
  1  3  1  0
  2  4  1  0
  3  5  2  0
  4  6  1  0
  4  7  2  0
  6  8  1  0
  6  9  2  0
  8 10  2  0
  9 11  1  0
 11 12  1  0
 12 13  1  0
  5  7  1  0
 10 11  1  0
M  END
>  <MolRegNo>  (1) 
299558

>  <m>  (1) 
=

>  <Value>  (1) 
344000

>  <Unit>  (1) 
nM

>  <Type>  (1) 
IC50

>  <pValue>  (1) 
0

>  <Ligand Efficiency>  (1) 
0

>  <Binding Efficiency>  (1) 
0

>  <Surface Efficiency>  (1) 
0

>  <Assay Index>  (1) 
238570

>  <Assay Category>  (1) 


>  <Assay Organism>  (1) 
Homo sapiens

>  <Target ID>  (1) 
11365

>  <Target Name>  (1) 
Cytochrome P450 2D6

>  <Target Organism>  (1) 
Homo sapiens

>  <Target Description>  (1) 
Target is a single protein chain

>  <Sequence Accession>  (1) 
P10635

>  <Reference>  (1) 
J Med Chem 48 (1), 224-239 (2005)

>  <Pubmed ID>  (1) 
15634016

>  <DOI>  (1) 
10.1021/jm049696n

$$$$
