4wnv_ligand_968
     RDKit          2D

 24 26  0  0  0  0  0  0  0  0999 V2000
    0.0000   -0.0000   -0.0000 S   0  0  0  0  0  0  0  0  0  0  0  0
    0.6986    1.2725   -0.0000 O   0  0  0  0  0  0  0  0  0  0  0  0
   -0.7485    1.2725   -0.0000 O   0  0  0  0  0  0  0  0  0  0  0  0
    1.2476   -0.7111   -0.0000 N   0  0  0  0  0  0  0  0  0  0  0  0
   -1.2725   -0.6986   -0.0000 C   0  0  0  0  0  0  0  0  0  0  0  0
    2.4951    0.0250   -0.0000 C   0  0  0  0  0  0  0  0  0  0  0  0
   -2.5326    0.0499   -0.0000 C   0  0  0  0  0  0  0  0  0  0  0  0
   -1.2975   -2.1333   -0.0000 C   0  0  0  0  0  0  0  0  0  0  0  0
    3.7302   -0.6862   -0.0000 C   0  0  0  0  0  0  0  0  0  0  0  0
    2.4827    1.4971   -0.0000 C   0  0  0  0  0  0  0  0  0  0  0  0
    4.9903    0.0499   -0.0000 C   0  0  0  0  0  0  0  0  0  0  0  0
    3.7178    2.2332   -0.0000 C   0  0  0  0  0  0  0  0  0  0  0  0
    4.9653    1.5220   -0.0000 C   0  0  0  0  0  0  0  0  0  0  0  0
    6.2254   -0.9232   -0.0000 C   0  0  0  0  0  0  0  0  0  0  0  0
    6.1131    2.4827   -0.0000 C   0  0  0  0  0  0  0  0  0  0  0  0
    7.6975   -0.5614   -0.0000 C   0  0  0  0  0  0  0  0  0  0  0  0
    7.5728    2.2456   -0.0000 C   0  0  0  0  0  0  0  0  0  0  0  0
    8.3213    0.8608   -0.0000 N   0  0  0  0  0  0  0  0  0  0  0  0
    9.8808    0.9232   -0.0000 C   0  0  0  0  0  0  0  0  0  0  0  0
   10.7042   -0.3992   -0.0000 C   0  0  0  0  0  0  0  0  0  0  0  0
   12.2761   -0.3368   -0.0000 N   0  0  0  0  0  0  0  0  0  0  0  0
   10.2550   -1.8963   -0.0000 C   0  0  0  0  0  0  0  0  0  0  0  0
   12.7876   -1.8090   -0.0000 N   0  0  0  0  0  0  0  0  0  0  0  0
   11.5400   -2.7696   -0.0000 C   0  0  0  0  0  0  0  0  0  0  0  0
  1  2  2  0
  1  3  2  0
  1  4  1  0
  1  5  1  0
  4  6  1  0
  5  7  1  0
  5  8  1  0
  6  9  2  0
  6 10  1  0
  9 11  1  0
 10 12  2  0
 11 13  2  0
 11 14  1  0
 13 15  1  0
 14 16  1  0
 15 17  1  0
 16 18  1  0
 18 19  1  0
 19 20  1  0
 20 21  2  0
 20 22  1  0
 21 23  1  0
 22 24  2  0
 12 13  1  0
 17 18  1  0
 23 24  1  0
M  END
>  <MolRegNo>  (1) 
617183

>  <m>  (1) 
=

>  <Value>  (1) 
16000

>  <Unit>  (1) 
nM

>  <Type>  (1) 
IC50

>  <pValue>  (1) 
4.8

>  <Ligand Efficiency>  (1) 
0

>  <Binding Efficiency>  (1) 
0

>  <Surface Efficiency>  (1) 
0

>  <Assay Index>  (1) 
468007

>  <Assay Category>  (1) 


>  <Assay Organism>  (1) 
Homo sapiens

>  <Target ID>  (1) 
11365

>  <Target Name>  (1) 
Cytochrome P450 2D6

>  <Target Organism>  (1) 
Homo sapiens

>  <Target Description>  (1) 
Target is a single protein chain

>  <Sequence Accession>  (1) 
P10635

>  <Reference>  (1) 
Bioorg Med Chem Lett 19 (22), 6452-6458 (2009)

>  <Pubmed ID>  (1) 
19804969

>  <DOI>  (1) 
10.1016/j.bmcl.2009.09.027

$$$$
