4wnv_ligand_34
     RDKit          2D

 17 18  0  0  0  0  0  0  0  0999 V2000
    0.0000   -0.0000   -0.0000 O   0  0  0  0  0  0  0  0  0  0  0  0
    1.2864    0.7553   -0.0000 C   0  0  0  0  0  0  0  0  0  0  0  0
   -1.3100    0.7671   -0.0000 C   0  0  0  0  0  0  0  0  0  0  0  0
    1.2628    2.2660   -0.0000 C   0  0  0  0  0  0  0  0  0  0  0  0
    2.5728    0.0118   -0.0000 C   0  0  0  0  0  0  0  0  0  0  0  0
   -2.6319    0.0236   -0.0000 C   0  0  0  0  0  0  0  0  0  0  0  0
    2.5492    3.0213   -0.0000 C   0  0  0  0  0  0  0  0  0  0  0  0
    3.8593    0.7789   -0.0000 C   0  0  0  0  0  0  0  0  0  0  0  0
   -3.9419    0.7907   -0.0000 C   0  0  0  0  0  0  0  0  0  0  0  0
    3.8357    2.2778   -0.0000 C   0  0  0  0  0  0  0  0  0  0  0  0
   -5.2519    0.0472   -0.0000 C   0  0  0  0  0  0  0  0  0  0  0  0
    5.1221    3.0331   -0.0000 C   0  0  0  0  0  0  0  0  0  0  0  0
    5.2637    4.5320   -0.0000 N   0  0  0  0  0  0  0  0  0  0  0  0
    6.4675    2.4430   -0.0000 C   0  0  0  0  0  0  0  0  0  0  0  0
    6.7154    4.8624   -0.0000 N   0  0  0  0  0  0  0  0  0  0  0  0
    4.1189    5.5470   -0.0000 C   0  0  0  0  0  0  0  0  0  0  0  0
    7.4589    3.5642   -0.0000 C   0  0  0  0  0  0  0  0  0  0  0  0
  1  2  1  0
  1  3  1  0
  2  4  2  0
  2  5  1  0
  3  6  1  0
  4  7  1  0
  5  8  2  0
  6  9  1  0
  7 10  2  0
  9 11  1  0
 10 12  1  0
 12 13  1  0
 12 14  2  0
 13 15  1  0
 13 16  1  0
 14 17  1  0
  8 10  1  0
 15 17  2  0
M  END
>  <MolRegNo>  (1) 
251142

>  <m>  (1) 
=

>  <Value>  (1) 
96500

>  <Unit>  (1) 
nM

>  <Type>  (1) 
IC50

>  <pValue>  (1) 
4.01

>  <Ligand Efficiency>  (1) 
0

>  <Binding Efficiency>  (1) 
0

>  <Surface Efficiency>  (1) 
0

>  <Assay Index>  (1) 
51627

>  <Assay Category>  (1) 


>  <Assay Organism>  (1) 


>  <Target ID>  (1) 
11365

>  <Target Name>  (1) 
Cytochrome P450 2D6

>  <Target Organism>  (1) 
Homo sapiens

>  <Target Description>  (1) 
Target is a single protein chain

>  <Sequence Accession>  (1) 
P10635

>  <Reference>  (1) 
J Med Chem 46 (25), 5416-5427 (2003)

>  <Pubmed ID>  (1) 
14640550

>  <DOI>  (1) 
10.1021/jm020557k

$$$$
