4wnv_ligand_229
     RDKit          2D

 33 35  0  0  1  0  0  0  0  0999 V2000
    0.0000   -0.0000   -0.0000 S   0  0  0  0  0  0  0  0  0  0  0  0
    1.4887   -0.0000   -0.0000 O   0  0  0  0  0  0  0  0  0  0  0  0
   -1.5125    0.0119   -0.0000 O   0  0  0  0  0  0  0  0  0  0  0  0
   -0.0119    1.5125   -0.0000 N   0  0  0  0  0  0  0  0  0  0  0  0
   -0.0238   -1.4887   -0.0000 C   0  0  0  0  0  0  0  0  0  0  0  0
    1.2743    2.2747   -0.0000 C   0  0  0  0  0  0  0  0  0  0  0  0
   -1.3458   -2.2152   -0.0000 C   0  0  0  0  0  0  0  0  0  0  0  0
    2.5606    1.5363   -0.0000 C   0  0  0  0  0  0  0  0  0  0  0  0
    1.2624    3.7991   -0.0000 C   0  0  0  0  0  0  0  0  0  0  0  0
   -1.3696   -3.7039   -0.0000 C   0  0  0  0  0  0  0  0  0  0  0  0
    3.8587    2.2985   -0.0000 C   0  0  0  0  0  0  0  0  0  0  0  0
    2.5486    4.5614   -0.0000 C   0  0  0  0  0  0  0  0  0  0  0  0
    3.8468    3.8230   -0.0000 C   0  0  0  0  0  0  0  0  0  0  0  0
    5.1330    4.5852   -0.0000 N   0  0  0  0  0  0  0  0  0  0  0  0
    6.4193    3.8468   -0.0000 C   0  0  0  0  0  0  0  0  0  0  0  0
    7.7055    4.6090   -0.0000 C   0  0  0  0  0  0  0  0  0  0  0  0
    7.6936    6.1215   -0.0000 O   0  0  0  0  0  0  0  0  0  0  0  0
    8.9917    3.8706   -0.0000 N   0  0  0  0  0  0  0  0  0  0  0  0
   10.2780    4.6328   -0.0000 C   0  0  0  0  0  0  0  0  0  0  0  0
    8.9798    2.3819   -0.0000 C   0  0  0  0  0  0  0  0  0  0  0  0
   10.2660    6.1453   -0.0000 C   0  0  0  0  0  0  0  0  0  0  0  0
   11.5642    3.8944   -0.0000 C   0  0  0  0  0  0  0  0  0  0  0  0
   11.5523    6.9075   -0.0000 C   0  0  0  0  0  0  0  0  0  0  0  0
    8.9560    6.8956   -0.0000 C   0  0  0  0  0  0  0  0  0  0  0  0
   12.8504    4.6566   -0.0000 N   0  0  0  0  0  0  0  0  0  0  0  0
   11.5404    8.4201   -0.0000 C   0  0  0  0  0  0  0  0  0  0  0  0
    8.9322    8.4081   -0.0000 C   0  0  0  0  0  0  0  0  0  0  0  0
   14.2081    4.0612   -0.0000 C   0  0  0  0  0  0  0  0  0  0  0  0
   12.9933    6.1572   -0.0000 C   0  0  0  0  0  0  0  0  0  0  0  0
   10.2184    9.1823   -0.0000 C   0  0  0  0  0  0  0  0  0  0  0  0
   15.1966    5.1926   -0.0000 C   0  0  0  0  0  0  0  0  0  0  0  0
   14.4463    6.4907   -0.0000 C   0  0  0  0  0  0  0  0  0  0  0  0
   16.6853    5.0497   -0.0000 O   0  0  0  0  0  0  0  0  0  0  0  0
  1  2  2  0
  1  3  2  0
  1  4  1  0
  1  5  1  0
  4  6  1  0
  5  7  1  0
  6  8  2  0
  6  9  1  0
  7 10  1  0
  8 11  1  0
  9 12  2  0
 11 13  2  0
 13 14  1  0
 14 15  1  0
 15 16  1  0
 16 17  2  0
 16 18  1  0
 19 18  1  0
 18 20  1  0
 19 21  1  0
 19 22  1  1
 21 23  2  0
 21 24  1  0
 22 25  1  0
 23 26  1  0
 24 27  2  0
 25 28  1  0
 25 29  1  0
 26 30  2  0
 28 31  1  0
 29 32  1  0
 31 33  1  6
 12 13  1  0
 27 30  1  0
 31 32  1  0
M  END
>  <MolRegNo>  (1) 
337931

>  <m>  (1) 
=

>  <Value>  (1) 
9000

>  <Unit>  (1) 
nM

>  <Type>  (1) 
IC50

>  <pValue>  (1) 
5.05

>  <Ligand Efficiency>  (1) 
0

>  <Binding Efficiency>  (1) 
0

>  <Surface Efficiency>  (1) 
0

>  <Assay Index>  (1) 
257094

>  <Assay Category>  (1) 


>  <Assay Organism>  (1) 
Homo sapiens

>  <Target ID>  (1) 
11365

>  <Target Name>  (1) 
Cytochrome P450 2D6

>  <Target Organism>  (1) 
Homo sapiens

>  <Target Description>  (1) 
Target is a single protein chain

>  <Sequence Accession>  (1) 
P10635

>  <Reference>  (1) 
Bioorg Med Chem Lett 16 (3), 645-648 (2006)

>  <Pubmed ID>  (1) 
16263278

>  <DOI>  (1) 
10.1016/j.bmcl.2005.10.034

$$$$
