4wnv_ligand_372
     RDKit          2D

 37 40  0  0  0  0  0  0  0  0999 V2000
    0.0000   -0.0000   -0.0000 S   0  0  0  0  0  0  0  0  0  0  0  0
    0.7465   -1.2797   -0.0000 O   0  0  0  0  0  0  0  0  0  0  0  0
   -0.7702    1.3034   -0.0000 O   0  0  0  0  0  0  0  0  0  0  0  0
   -1.3034   -0.7347   -0.0000 N   0  0  0  0  0  0  0  0  0  0  0  0
    1.2797    0.7702   -0.0000 C   0  0  0  0  0  0  0  0  0  0  0  0
   -1.3153   -2.2277   -0.0000 C   0  0  0  0  0  0  0  0  0  0  0  0
   -2.6187   -2.9742   -0.0000 C   0  0  0  0  0  0  0  0  0  0  0  0
   -2.6305   -4.4672   -0.0000 N   0  0  0  0  0  0  0  0  0  0  0  0
   -3.9458   -5.2137   -0.0000 C   0  0  0  0  0  0  0  0  0  0  0  0
   -1.3390   -5.2018   -0.0000 C   0  0  0  0  0  0  0  0  0  0  0  0
   -3.9576   -6.7067   -0.0000 C   0  0  0  0  0  0  0  0  0  0  0  0
   -5.2611   -4.4553   -0.0000 C   0  0  0  0  0  0  0  0  0  0  0  0
   -0.0474   -4.4435   -0.0000 O   0  0  0  0  0  0  0  0  0  0  0  0
   -1.3508   -6.6948   -0.0000 C   0  0  0  0  0  0  0  0  0  0  0  0
   -2.6661   -7.4413   -0.0000 O   0  0  0  0  0  0  0  0  0  0  0  0
   -5.2611   -7.4532   -0.0000 C   0  0  0  0  0  0  0  0  0  0  0  0
   -6.5645   -5.2018   -0.0000 C   0  0  0  0  0  0  0  0  0  0  0  0
   -0.0711   -7.4295   -0.0000 C   0  0  0  0  0  0  0  0  0  0  0  0
   -1.3745   -8.1760   -0.0000 C   0  0  0  0  0  0  0  0  0  0  0  0
   -6.5763   -6.6948   -0.0000 C   0  0  0  0  0  0  0  0  0  0  0  0
   -7.8679   -4.4435   -0.0000 C   0  0  0  0  0  0  0  0  0  0  0  0
   -0.0829   -8.9225   -0.0000 C   0  0  0  0  0  0  0  0  0  0  0  0
    1.2086   -6.6711   -0.0000 C   0  0  0  0  0  0  0  0  0  0  0  0
   -7.8797   -2.9268   -0.0000 C   0  0  0  0  0  0  0  0  0  0  0  0
   -9.1950   -5.1900   -0.0000 C   0  0  0  0  0  0  0  0  0  0  0  0
    1.1968   -9.6690   -0.0000 C   0  0  0  0  0  0  0  0  0  0  0  0
    2.5002   -7.3939   -0.0000 C   0  0  0  0  0  0  0  0  0  0  0  0
   -9.1950   -2.1684   -0.0000 N   0  0  0  0  0  0  0  0  0  0  0  0
   -6.6000   -2.1566   -0.0000 N   0  0  0  0  0  0  0  0  0  0  0  0
  -10.5103   -4.4198   -0.0000 N   0  0  0  0  0  0  0  0  0  0  0  0
   -9.2068   -6.6830   -0.0000 C   0  0  0  0  0  0  0  0  0  0  0  0
    1.1849  -11.1620   -0.0000 F   0  0  0  0  0  0  0  0  0  0  0  0
    2.4883   -8.8988   -0.0000 C   0  0  0  0  0  0  0  0  0  0  0  0
    3.7917   -6.6356   -0.0000 F   0  0  0  0  0  0  0  0  0  0  0  0
  -10.4984   -2.9149   -0.0000 C   0  0  0  0  0  0  0  0  0  0  0  0
  -10.5221   -7.4176   -0.0000 C   0  0  0  0  0  0  0  0  0  0  0  0
  -11.8137   -2.1447   -0.0000 N   0  0  0  0  0  0  0  0  0  0  0  0
  1  2  2  0
  1  3  2  0
  1  4  1  0
  1  5  1  0
  4  6  1  0
  6  7  1  0
  7  8  1  0
  8  9  1  0
  8 10  1  0
  9 11  2  0
  9 12  1  0
 10 13  2  0
 10 14  1  0
 11 15  1  0
 11 16  1  0
 12 17  2  0
 14 18  1  0
 14 19  1  0
 16 20  2  0
 17 21  1  0
 18 22  2  0
 18 23  1  0
 21 24  2  0
 21 25  1  0
 22 26  1  0
 23 27  2  0
 24 28  1  0
 24 29  1  0
 25 30  2  0
 25 31  1  0
 26 32  1  0
 26 33  2  0
 27 34  1  0
 28 35  2  0
 31 36  1  0
 35 37  1  0
 14 15  1  0
 17 20  1  0
 27 33  1  0
 30 35  1  0
M  END
>  <MolRegNo>  (1) 
405844

>  <m>  (1) 
=

>  <Value>  (1) 
15100

>  <Unit>  (1) 
nM

>  <Type>  (1) 
IC50

>  <pValue>  (1) 
4.82

>  <Ligand Efficiency>  (1) 
0

>  <Binding Efficiency>  (1) 
0

>  <Surface Efficiency>  (1) 
0

>  <Assay Index>  (1) 
297171

>  <Assay Category>  (1) 


>  <Assay Organism>  (1) 


>  <Target ID>  (1) 
11365

>  <Target Name>  (1) 
Cytochrome P450 2D6

>  <Target Organism>  (1) 
Homo sapiens

>  <Target Description>  (1) 
Target is a single protein chain

>  <Sequence Accession>  (1) 
P10635

>  <Reference>  (1) 
Bioorg Med Chem 15 (17), 5912-5949 (2007)

>  <Pubmed ID>  (1) 
17574423

>  <DOI>  (1) 
10.1016/j.bmc.2007.05.069

$$$$
