4wnv_ligand_377
     RDKit          2D

 35 38  0  0  0  0  0  0  0  0999 V2000
    0.0000   -0.0000   -0.0000 F   0  0  0  0  0  0  0  0  0  0  0  0
   -0.7573    1.3015   -0.0000 C   0  0  0  0  0  0  0  0  0  0  0  0
   -0.0237    2.6030   -0.0000 C   0  0  0  0  0  0  0  0  0  0  0  0
   -2.2599    1.3134   -0.0000 C   0  0  0  0  0  0  0  0  0  0  0  0
   -0.7927    3.9164   -0.0000 C   0  0  0  0  0  0  0  0  0  0  0  0
   -3.0172    2.6149   -0.0000 C   0  0  0  0  0  0  0  0  0  0  0  0
   -0.0710    5.2179   -0.0000 F   0  0  0  0  0  0  0  0  0  0  0  0
   -2.2836    3.9164   -0.0000 C   0  0  0  0  0  0  0  0  0  0  0  0
   -4.5198    2.6267   -0.0000 C   0  0  0  0  0  0  0  0  0  0  0  0
   -5.8332    1.8931   -0.0000 O   0  0  0  0  0  0  0  0  0  0  0  0
   -4.5317    4.1412   -0.0000 C   0  0  0  0  0  0  0  0  0  0  0  0
   -4.5435    1.1477   -0.0000 C   0  0  0  0  0  0  0  0  0  0  0  0
   -7.1347    2.6622   -0.0000 C   0  0  0  0  0  0  0  0  0  0  0  0
   -3.2538    4.8985   -0.0000 O   0  0  0  0  0  0  0  0  0  0  0  0
   -5.8569    4.9103   -0.0000 N   0  0  0  0  0  0  0  0  0  0  0  0
   -7.1466    4.1649   -0.0000 C   0  0  0  0  0  0  0  0  0  0  0  0
   -8.4362    1.9168   -0.0000 C   0  0  0  0  0  0  0  0  0  0  0  0
   -5.8687    6.4130   -0.0000 C   0  0  0  0  0  0  0  0  0  0  0  0
   -8.4599    4.9103   -0.0000 C   0  0  0  0  0  0  0  0  0  0  0  0
   -9.7378    2.6859   -0.0000 C   0  0  0  0  0  0  0  0  0  0  0  0
   -4.5908    7.1702   -0.0000 C   0  0  0  0  0  0  0  0  0  0  0  0
   -9.7496    4.1767   -0.0000 C   0  0  0  0  0  0  0  0  0  0  0  0
   -4.6027    8.6729   -0.0000 C   0  0  0  0  0  0  0  0  0  0  0  0
  -11.0393    4.9340   -0.0000 C   0  0  0  0  0  0  0  0  0  0  0  0
   -3.3248    9.4301   -0.0000 O   0  0  0  0  0  0  0  0  0  0  0  0
  -12.3527    4.2004   -0.0000 C   0  0  0  0  0  0  0  0  0  0  0  0
  -11.0511    6.4366   -0.0000 C   0  0  0  0  0  0  0  0  0  0  0  0
   -3.3366   10.9328   -0.0000 C   0  0  0  0  0  0  0  0  0  0  0  0
  -13.6542    4.9576   -0.0000 N   0  0  0  0  0  0  0  0  0  0  0  0
  -12.3645    2.7214   -0.0000 N   0  0  0  0  0  0  0  0  0  0  0  0
  -12.3645    7.1820   -0.0000 N   0  0  0  0  0  0  0  0  0  0  0  0
   -9.7733    7.1939   -0.0000 C   0  0  0  0  0  0  0  0  0  0  0  0
  -13.6660    6.4603   -0.0000 C   0  0  0  0  0  0  0  0  0  0  0  0
   -9.7969    8.6966   -0.0000 C   0  0  0  0  0  0  0  0  0  0  0  0
  -14.9794    7.2294   -0.0000 N   0  0  0  0  0  0  0  0  0  0  0  0
  1  2  1  0
  2  3  2  0
  2  4  1  0
  3  5  1  0
  4  6  2  0
  5  7  1  0
  5  8  2  0
  6  9  1  0
  9 10  1  0
  9 11  1  0
  9 12  1  0
 10 13  1  0
 11 14  2  0
 11 15  1  0
 13 16  2  0
 13 17  1  0
 15 18  1  0
 16 19  1  0
 17 20  2  0
 18 21  1  0
 19 22  2  0
 21 23  1  0
 22 24  1  0
 23 25  1  0
 24 26  2  0
 24 27  1  0
 25 28  1  0
 26 29  1  0
 26 30  1  0
 27 31  2  0
 27 32  1  0
 29 33  2  0
 32 34  1  0
 33 35  1  0
  6  8  1  0
 15 16  1  0
 20 22  1  0
 31 33  1  0
M  END
>  <MolRegNo>  (1) 
405789

>  <m>  (1) 
=

>  <Value>  (1) 
6300

>  <Unit>  (1) 
nM

>  <Type>  (1) 
IC50

>  <pValue>  (1) 
5.2

>  <Ligand Efficiency>  (1) 
0

>  <Binding Efficiency>  (1) 
0

>  <Surface Efficiency>  (1) 
0

>  <Assay Index>  (1) 
297171

>  <Assay Category>  (1) 


>  <Assay Organism>  (1) 


>  <Target ID>  (1) 
11365

>  <Target Name>  (1) 
Cytochrome P450 2D6

>  <Target Organism>  (1) 
Homo sapiens

>  <Target Description>  (1) 
Target is a single protein chain

>  <Sequence Accession>  (1) 
P10635

>  <Reference>  (1) 
Bioorg Med Chem 15 (17), 5912-5949 (2007)

>  <Pubmed ID>  (1) 
17574423

>  <DOI>  (1) 
10.1016/j.bmc.2007.05.069

$$$$
