4wnv_ligand_453
     RDKit          2D

 39 43  0  0  1  0  0  0  0  0999 V2000
    0.0000   -0.0000   -0.0000 S   0  0  0  0  0  0  0  0  0  0  0  0
    1.2046    0.8945   -0.0000 C   0  0  0  0  0  0  0  0  0  0  0  0
    0.4532   -1.4193   -0.0000 C   0  0  0  0  0  0  0  0  0  0  0  0
    2.4093    0.0358   -0.0000 N   0  0  0  0  0  0  0  0  0  0  0  0
    1.1927    2.4093   -0.0000 N   0  0  0  0  0  0  0  0  0  0  0  0
    1.9441   -1.4074   -0.0000 C   0  0  0  0  0  0  0  0  0  0  0  0
   -0.3340   -2.6836   -0.0000 C   0  0  0  0  0  0  0  0  0  0  0  0
   -0.1193    3.1845   -0.0000 C   0  0  0  0  0  0  0  0  0  0  0  0
    2.8148   -2.6001   -0.0000 C   0  0  0  0  0  0  0  0  0  0  0  0
   -1.8487   -2.6478   -0.0000 O   0  0  0  0  0  0  0  0  0  0  0  0
    0.3817   -3.9836   -0.0000 C   0  0  0  0  0  0  0  0  0  0  0  0
   -1.4312    2.4450   -0.0000 O   0  0  0  0  0  0  0  0  0  0  0  0
   -0.1312    4.6992   -0.0000 N   0  0  0  0  0  0  0  0  0  0  0  0
   -1.4432    5.4626   -0.0000 C   0  0  0  0  0  0  0  0  0  0  0  0
   -1.4551    6.9773   -0.0000 C   0  0  0  0  0  0  0  0  0  0  0  0
   -2.7551    4.7350   -0.0000 C   0  0  0  0  0  0  0  0  0  0  0  0
   -2.7671    7.7525   -0.0000 C   0  0  0  0  0  0  0  0  0  0  0  0
   -0.1551    7.7406   -0.0000 C   0  0  0  0  0  0  0  0  0  0  0  0
   -4.0671    5.4864   -0.0000 C   0  0  0  0  0  0  0  0  0  0  0  0
   -4.0790    7.0011   -0.0000 N   0  0  0  0  0  0  0  0  0  0  0  0
    1.1331    6.9892   -0.0000 N   0  0  0  0  0  0  0  0  0  0  0  0
   -5.3910    7.7525   -0.0000 C   0  0  0  0  0  0  0  0  0  0  0  0
    2.4212    7.7525   -0.0000 C   0  0  0  0  0  0  0  0  0  0  0  0
    1.1211    5.4864   -0.0000 C   0  0  0  0  0  0  0  0  0  0  0  0
   -5.4029    9.2673   -0.0000 O   0  0  0  0  0  0  0  0  0  0  0  0
   -6.6910    7.0131   -0.0000 C   0  0  0  0  0  0  0  0  0  0  0  0
    3.7093    7.0011   -0.0000 C   0  0  0  0  0  0  0  0  0  0  0  0
    2.4093    4.7469   -0.0000 C   0  0  0  0  0  0  0  0  0  0  0  0
   -8.1938    7.0131   -0.0000 C   0  0  0  0  0  0  0  0  0  0  0  0
   -7.4424    5.7250   -0.0000 C   0  0  0  0  0  0  0  0  0  0  0  0
    3.6854    5.5103   -0.0000 C   0  0  0  0  0  0  0  0  0  0  0  0
    5.0093    7.7645   -0.0000 C   0  0  0  0  0  0  0  0  0  0  0  0
    6.2975    7.0131   -0.0000 C   0  0  0  0  0  0  0  0  0  0  0  0
    6.2617    5.5222   -0.0000 C   0  0  0  0  0  0  0  0  0  0  0  0
    7.5856    7.7764   -0.0000 C   0  0  0  0  0  0  0  0  0  0  0  0
    7.5498    4.7827   -0.0000 C   0  0  0  0  0  0  0  0  0  0  0  0
    8.8737    7.0250   -0.0000 C   0  0  0  0  0  0  0  0  0  0  0  0
    8.8498    5.5341   -0.0000 C   0  0  0  0  0  0  0  0  0  0  0  0
   10.1379    4.7946   -0.0000 F   0  0  0  0  0  0  0  0  0  0  0  0
  1  2  1  0
  1  3  1  0
  2  4  2  0
  2  5  1  0
  3  6  2  0
  3  7  1  0
  5  8  1  0
  6  9  1  0
  7 10  2  0
  7 11  1  0
  8 12  2  0
  8 13  1  0
 14 13  1  6
 14 15  1  0
 14 16  1  0
 15 17  1  0
 15 18  1  1
 16 19  1  0
 17 20  1  0
 18 21  1  0
 20 22  1  0
 21 23  1  0
 21 24  1  0
 22 25  2  0
 22 26  1  0
 23 27  1  0
 24 28  1  0
 26 29  1  0
 26 30  1  0
 27 31  1  0
 27 32  1  6
 32 33  1  0
 33 34  2  0
 33 35  1  0
 34 36  1  0
 35 37  2  0
 36 38  2  0
 38 39  1  0
  4  6  1  0
 19 20  1  0
 28 31  1  0
 29 30  1  0
 37 38  1  0
M  END
>  <MolRegNo>  (1) 
421486

>  <m>  (1) 
=

>  <Value>  (1) 
60

>  <Unit>  (1) 
nM

>  <Type>  (1) 
IC50

>  <pValue>  (1) 
7.22

>  <Ligand Efficiency>  (1) 
0

>  <Binding Efficiency>  (1) 
0

>  <Surface Efficiency>  (1) 
0

>  <Assay Index>  (1) 
307824

>  <Assay Category>  (1) 


>  <Assay Organism>  (1) 
Homo sapiens

>  <Target ID>  (1) 
11365

>  <Target Name>  (1) 
Cytochrome P450 2D6

>  <Target Organism>  (1) 
Homo sapiens

>  <Target Description>  (1) 
Target is a single protein chain

>  <Sequence Accession>  (1) 
P10635

>  <Reference>  (1) 
Bioorg Med Chem Lett 17 (11), 2992-2997 (2007)

>  <Pubmed ID>  (1) 
17418570

>  <DOI>  (1) 
10.1016/j.bmcl.2007.03.065

$$$$
