4wnv_ligand_837
     RDKit          2D

 27 30  0  0  0  0  0  0  0  0999 V2000
    0.0000   -0.0000   -0.0000 O   0  0  0  0  0  0  0  0  0  0  0  0
   -0.0119   -1.4868   -0.0000 C   0  0  0  0  0  0  0  0  0  0  0  0
    1.2727   -2.2242   -0.0000 N   0  0  0  0  0  0  0  0  0  0  0  0
   -1.3203   -2.2242   -0.0000 C   0  0  0  0  0  0  0  0  0  0  0  0
    2.5573   -1.4630   -0.0000 C   0  0  0  0  0  0  0  0  0  0  0  0
    1.2608   -3.7110   -0.0000 C   0  0  0  0  0  0  0  0  0  0  0  0
   -2.6287   -1.4630   -0.0000 C   0  0  0  0  0  0  0  0  0  0  0  0
   -1.3322   -3.7229   -0.0000 C   0  0  0  0  0  0  0  0  0  0  0  0
    3.8419   -2.2005   -0.0000 C   0  0  0  0  0  0  0  0  0  0  0  0
    2.5335    0.0357   -0.0000 C   0  0  0  0  0  0  0  0  0  0  0  0
    2.4621   -4.5793   -0.0000 C   0  0  0  0  0  0  0  0  0  0  0  0
    0.0357   -4.5793   -0.0000 C   0  0  0  0  0  0  0  0  0  0  0  0
   -2.6405    0.0476   -0.0000 O   0  0  0  0  0  0  0  0  0  0  0  0
   -3.9370   -2.2005   -0.0000 C   0  0  0  0  0  0  0  0  0  0  0  0
   -2.6524   -4.4604   -0.0000 C   0  0  0  0  0  0  0  0  0  0  0  0
    5.1265   -1.4392   -0.0000 C   0  0  0  0  0  0  0  0  0  0  0  0
    3.8062    0.8088   -0.0000 C   0  0  0  0  0  0  0  0  0  0  0  0
    1.9864   -5.9948   -0.0000 N   0  0  0  0  0  0  0  0  0  0  0  0
    0.4877   -5.9948   -0.0000 C   0  0  0  0  0  0  0  0  0  0  0  0
   -3.9489    0.8088   -0.0000 C   0  0  0  0  0  0  0  0  0  0  0  0
   -3.9489   -3.6991   -0.0000 C   0  0  0  0  0  0  0  0  0  0  0  0
    5.1146    0.0714   -0.0000 C   0  0  0  0  0  0  0  0  0  0  0  0
   -3.9608    2.3313   -0.0000 C   0  0  0  0  0  0  0  0  0  0  0  0
   -5.2454    0.0714   -0.0000 C   0  0  0  0  0  0  0  0  0  0  0  0
   -5.2692    3.0806   -0.0000 C   0  0  0  0  0  0  0  0  0  0  0  0
   -6.5538    0.8207   -0.0000 C   0  0  0  0  0  0  0  0  0  0  0  0
   -6.5776    2.3551   -0.0000 C   0  0  0  0  0  0  0  0  0  0  0  0
  1  2  2  0
  2  3  1  0
  2  4  1  0
  3  5  1  0
  6  3  1  6
  4  7  1  0
  4  8  2  0
  5  9  2  0
  5 10  1  0
  6 11  1  0
  6 12  1  0
  7 13  1  0
  7 14  2  0
  8 15  1  0
  9 16  1  0
 10 17  2  0
 11 18  1  0
 12 19  1  0
 13 20  1  0
 14 21  1  0
 16 22  2  0
 20 23  2  0
 20 24  1  0
 23 25  1  0
 24 26  2  0
 25 27  2  0
 15 21  2  0
 17 22  1  0
 18 19  1  0
 26 27  1  0
M  END
>  <MolRegNo>  (1) 
567949

>  <m>  (1) 
=

>  <Value>  (1) 
5540

>  <Unit>  (1) 
nM

>  <Type>  (1) 
IC50

>  <pValue>  (1) 
5.26

>  <Ligand Efficiency>  (1) 
0

>  <Binding Efficiency>  (1) 
0

>  <Surface Efficiency>  (1) 
0

>  <Assay Index>  (1) 
427125

>  <Assay Category>  (1) 


>  <Assay Organism>  (1) 


>  <Target ID>  (1) 
11365

>  <Target Name>  (1) 
Cytochrome P450 2D6

>  <Target Organism>  (1) 
Homo sapiens

>  <Target Description>  (1) 
Target is a single protein chain

>  <Sequence Accession>  (1) 
P10635

>  <Reference>  (1) 
Bioorg Med Chem Lett 19 (16), 4579-4583 (2009)

>  <Pubmed ID>  (1) 
19616432

>  <DOI>  (1) 
10.1016/j.bmcl.2009.06.096

$$$$
