4wnv_ligand_275
     RDKit          2D

 33 36  0  0  0  0  0  0  0  0999 V2000
    0.0000   -0.0000   -0.0000 F   0  0  0  0  0  0  0  0  0  0  0  0
   -1.3202   -0.7612   -0.0000 C   0  0  0  0  0  0  0  0  0  0  0  0
   -2.6286   -0.0000   -0.0000 C   0  0  0  0  0  0  0  0  0  0  0  0
   -1.3321   -2.2480   -0.0000 C   0  0  0  0  0  0  0  0  0  0  0  0
   -3.9369   -0.7374   -0.0000 C   0  0  0  0  0  0  0  0  0  0  0  0
   -2.6405   -2.9973   -0.0000 C   0  0  0  0  0  0  0  0  0  0  0  0
   -3.9488   -2.2242   -0.0000 C   0  0  0  0  0  0  0  0  0  0  0  0
   -5.2690   -2.9854   -0.0000 C   0  0  0  0  0  0  0  0  0  0  0  0
   -5.2571   -4.4840   -0.0000 O   0  0  0  0  0  0  0  0  0  0  0  0
   -6.5893   -2.2242   -0.0000 C   0  0  0  0  0  0  0  0  0  0  0  0
   -3.9607   -5.2096   -0.0000 C   0  0  0  0  0  0  0  0  0  0  0  0
   -6.6249   -0.7136   -0.0000 C   0  0  0  0  0  0  0  0  0  0  0  0
   -7.8738   -2.9854   -0.0000 C   0  0  0  0  0  0  0  0  0  0  0  0
   -3.9607   -6.6963   -0.0000 C   0  0  0  0  0  0  0  0  0  0  0  0
   -7.9333    0.0357   -0.0000 C   0  0  0  0  0  0  0  0  0  0  0  0
   -9.1940   -2.2242   -0.0000 C   0  0  0  0  0  0  0  0  0  0  0  0
   -2.6761   -7.4337   -0.0000 N   0  0  0  0  0  0  0  0  0  0  0  0
   -9.2416   -0.7136   -0.0000 C   0  0  0  0  0  0  0  0  0  0  0  0
   -1.3916   -6.6725   -0.0000 C   0  0  0  0  0  0  0  0  0  0  0  0
   -2.6880   -8.9324   -0.0000 C   0  0  0  0  0  0  0  0  0  0  0  0
  -10.5737    0.0476   -0.0000 F   0  0  0  0  0  0  0  0  0  0  0  0
   -0.0952   -7.4100   -0.0000 C   0  0  0  0  0  0  0  0  0  0  0  0
   -1.4035   -9.6698   -0.0000 C   0  0  0  0  0  0  0  0  0  0  0  0
   -0.1070   -8.9086   -0.0000 C   0  0  0  0  0  0  0  0  0  0  0  0
    1.1894   -9.6579   -0.0000 C   0  0  0  0  0  0  0  0  0  0  0  0
    1.1894  -11.1566   -0.0000 C   0  0  0  0  0  0  0  0  0  0  0  0
    2.4739  -11.8940   -0.0000 C   0  0  0  0  0  0  0  0  0  0  0  0
    2.4621  -13.3807   -0.0000 C   0  0  0  0  0  0  0  0  0  0  0  0
    3.7466  -14.1182   -0.0000 C   0  0  0  0  0  0  0  0  0  0  0  0
    1.1537  -14.1182   -0.0000 C   0  0  0  0  0  0  0  0  0  0  0  0
    3.7347  -15.6049   -0.0000 C   0  0  0  0  0  0  0  0  0  0  0  0
    1.1418  -15.6049   -0.0000 C   0  0  0  0  0  0  0  0  0  0  0  0
    2.4264  -16.3423   -0.0000 C   0  0  0  0  0  0  0  0  0  0  0  0
  1  2  1  0
  2  3  2  0
  2  4  1  0
  3  5  1  0
  4  6  2  0
  5  7  2  0
  7  8  1  0
  8  9  1  0
  8 10  1  0
  9 11  1  0
 10 12  2  0
 10 13  1  0
 11 14  1  0
 12 15  1  0
 13 16  2  0
 14 17  1  0
 15 18  2  0
 17 19  1  0
 17 20  1  0
 18 21  1  0
 19 22  1  0
 20 23  1  0
 22 24  1  0
 24 25  1  0
 25 26  1  0
 26 27  1  0
 27 28  1  0
 28 29  2  0
 28 30  1  0
 29 31  1  0
 30 32  2  0
 31 33  2  0
  6  7  1  0
 16 18  1  0
 23 24  1  0
 32 33  1  0
M  END
>  <MolRegNo>  (1) 
124773

>  <m>  (1) 
=

>  <Value>  (1) 
1210

>  <Unit>  (1) 
nM

>  <Type>  (1) 
IC50

>  <pValue>  (1) 
5.92

>  <Ligand Efficiency>  (1) 
0

>  <Binding Efficiency>  (1) 
0

>  <Surface Efficiency>  (1) 
0

>  <Assay Index>  (1) 
259863

>  <Assay Category>  (1) 


>  <Assay Organism>  (1) 
Homo sapiens

>  <Target ID>  (1) 
11365

>  <Target Name>  (1) 
Cytochrome P450 2D6

>  <Target Organism>  (1) 
Homo sapiens

>  <Target Description>  (1) 
Target is a single protein chain

>  <Sequence Accession>  (1) 
P10635

>  <Reference>  (1) 
J Med Chem 49 (8), 2417-2430 (2006)

>  <Pubmed ID>  (1) 
16610785

>  <DOI>  (1) 
10.1021/jm0508538

$$$$
