4wnv_ligand_397
     RDKit          2D

 22 24  0  0  1  0  0  0  0  0999 V2000
    0.0000   -0.0000   -0.0000 F   0  0  0  0  0  0  0  0  0  0  0  0
   -0.0118    1.5033   -0.0000 C   0  0  0  0  0  0  0  0  0  0  0  0
   -1.3139    2.2609   -0.0000 C   0  0  0  0  0  0  0  0  0  0  0  0
    1.2784    2.2609   -0.0000 C   0  0  0  0  0  0  0  0  0  0  0  0
   -2.6279    1.5270   -0.0000 F   0  0  0  0  0  0  0  0  0  0  0  0
   -1.3258    3.7761   -0.0000 C   0  0  0  0  0  0  0  0  0  0  0  0
    2.5569    1.5270   -0.0000 F   0  0  0  0  0  0  0  0  0  0  0  0
    1.2666    3.7761   -0.0000 C   0  0  0  0  0  0  0  0  0  0  0  0
   -0.0473    4.5337   -0.0000 C   0  0  0  0  0  0  0  0  0  0  0  0
   -2.6279    4.5337   -0.0000 C   0  0  0  0  0  0  0  0  0  0  0  0
   -2.6397    6.0370   -0.0000 N   0  0  0  0  0  0  0  0  0  0  0  0
   -3.9418    6.7946   -0.0000 C   0  0  0  0  0  0  0  0  0  0  0  0
   -1.3613    6.7946   -0.0000 C   0  0  0  0  0  0  0  0  0  0  0  0
   -3.9537    8.2979   -0.0000 C   0  0  0  0  0  0  0  0  0  0  0  0
   -5.2439    6.0607   -0.0000 C   0  0  0  0  0  0  0  0  0  0  0  0
   -1.2192    8.2979   -0.0000 C   0  0  0  0  0  0  0  0  0  0  0  0
   -0.0118    6.2027   -0.0000 C   0  0  0  0  0  0  0  0  0  0  0  0
   -5.2558    9.0555   -0.0000 C   0  0  0  0  0  0  0  0  0  0  0  0
   -6.5460    6.8301   -0.0000 C   0  0  0  0  0  0  0  0  0  0  0  0
    0.2367    8.6176   -0.0000 N   0  0  0  0  0  0  0  0  0  0  0  0
    0.9825    7.3273   -0.0000 C   0  0  0  0  0  0  0  0  0  0  0  0
   -6.5697    8.3216   -0.0000 O   0  0  0  0  0  0  0  0  0  0  0  0
  1  2  1  0
  2  3  2  0
  2  4  1  0
  3  5  1  0
  3  6  1  0
  4  7  1  0
  4  8  2  0
  6  9  2  0
  6 10  1  0
 10 11  1  0
 11 12  1  0
 13 11  1  6
 12 14  1  0
 12 15  1  0
 13 16  1  0
 13 17  1  0
 14 18  1  0
 15 19  1  0
 16 20  1  0
 17 21  1  0
 18 22  1  0
  8  9  1  0
 19 22  1  0
 20 21  1  0
M  END
>  <MolRegNo>  (1) 
412798

>  <m>  (1) 
=

>  <Value>  (1) 
6800

>  <Unit>  (1) 
nM

>  <Type>  (1) 
IC50

>  <pValue>  (1) 
5.17

>  <Ligand Efficiency>  (1) 
0

>  <Binding Efficiency>  (1) 
0

>  <Surface Efficiency>  (1) 
0

>  <Assay Index>  (1) 
303145

>  <Assay Category>  (1) 


>  <Assay Organism>  (1) 
Homo sapiens

>  <Target ID>  (1) 
11365

>  <Target Name>  (1) 
Cytochrome P450 2D6

>  <Target Organism>  (1) 
Homo sapiens

>  <Target Description>  (1) 
Target is a single protein chain

>  <Sequence Accession>  (1) 
P10635

>  <Reference>  (1) 
Bioorg Med Chem Lett 17 (7), 2022-2025 (2007)

>  <Pubmed ID>  (1) 
17267217

>  <DOI>  (1) 
10.1016/j.bmcl.2007.01.020

$$$$
