4wnv_ligand_545
     RDKit          2D

 35 39  0  0  0  0  0  0  0  0999 V2000
    0.0000   -0.0000   -0.0000 Cl  0  0  0  0  0  0  0  0  0  0  0  0
    1.2605    0.8087   -0.0000 C   0  0  0  0  0  0  0  0  0  0  0  0
    1.1892    2.3189   -0.0000 C   0  0  0  0  0  0  0  0  0  0  0  0
    2.5687    0.1308   -0.0000 C   0  0  0  0  0  0  0  0  0  0  0  0
   -0.1546    3.0324   -0.0000 Cl  0  0  0  0  0  0  0  0  0  0  0  0
    2.4497    3.1276   -0.0000 C   0  0  0  0  0  0  0  0  0  0  0  0
    3.8173    0.9395   -0.0000 C   0  0  0  0  0  0  0  0  0  0  0  0
    3.7578    2.4378   -0.0000 C   0  0  0  0  0  0  0  0  0  0  0  0
    5.1373    0.2497   -0.0000 O   0  0  0  0  0  0  0  0  0  0  0  0
    5.0065    3.2584   -0.0000 N   0  0  0  0  0  0  0  0  0  0  0  0
    6.3979    1.0703   -0.0000 C   0  0  0  0  0  0  0  0  0  0  0  0
    6.3265    2.5687   -0.0000 C   0  0  0  0  0  0  0  0  0  0  0  0
    4.9352    4.7687   -0.0000 C   0  0  0  0  0  0  0  0  0  0  0  0
    7.5871    3.3892   -0.0000 O   0  0  0  0  0  0  0  0  0  0  0  0
    6.2314    5.5297   -0.0000 C   0  0  0  0  0  0  0  0  0  0  0  0
    7.5276    4.7924   -0.0000 O   0  0  0  0  0  0  0  0  0  0  0  0
    6.2076    7.0519   -0.0000 N   0  0  0  0  0  0  0  0  0  0  0  0
    7.5038    7.8130   -0.0000 C   0  0  0  0  0  0  0  0  0  0  0  0
    4.8876    7.8011   -0.0000 C   0  0  0  0  0  0  0  0  0  0  0  0
    7.4919    9.3233   -0.0000 C   0  0  0  0  0  0  0  0  0  0  0  0
    8.4076    6.6357   -0.0000 C   0  0  0  0  0  0  0  0  0  0  0  0
    4.8757    9.3233   -0.0000 C   0  0  0  0  0  0  0  0  0  0  0  0
    8.7881   10.0844   -0.0000 C   0  0  0  0  0  0  0  0  0  0  0  0
    6.1719   10.0844   -0.0000 C   0  0  0  0  0  0  0  0  0  0  0  0
    9.8822    6.8498   -0.0000 N   0  0  0  0  0  0  0  0  0  0  0  0
   10.0844    9.3471   -0.0000 C   0  0  0  0  0  0  0  0  0  0  0  0
    8.7762   11.5946   -0.0000 C   0  0  0  0  0  0  0  0  0  0  0  0
   10.9287    5.8033   -0.0000 C   0  0  0  0  0  0  0  0  0  0  0  0
   10.2508    8.3125   -0.0000 C   0  0  0  0  0  0  0  0  0  0  0  0
   11.3687   10.1081   -0.0000 C   0  0  0  0  0  0  0  0  0  0  0  0
   10.0606   12.3676   -0.0000 C   0  0  0  0  0  0  0  0  0  0  0  0
   12.3557    6.2076   -0.0000 C   0  0  0  0  0  0  0  0  0  0  0  0
   11.6898    8.7168   -0.0000 C   0  0  0  0  0  0  0  0  0  0  0  0
   11.3568   11.6303   -0.0000 C   0  0  0  0  0  0  0  0  0  0  0  0
   12.7363    7.6703   -0.0000 O   0  0  0  0  0  0  0  0  0  0  0  0
  1  2  1  0
  2  3  2  0
  2  4  1  0
  3  5  1  0
  3  6  1  0
  4  7  2  0
  6  8  2  0
  7  9  1  0
  8 10  1  0
  9 11  1  0
 10 12  1  0
 10 13  1  0
 12 14  2  0
 13 15  1  0
 15 16  2  0
 15 17  1  0
 17 18  1  0
 17 19  1  0
 18 20  1  0
 18 21  1  0
 19 22  1  0
 20 23  1  0
 20 24  1  0
 21 25  1  0
 23 26  2  0
 23 27  1  0
 25 28  1  0
 25 29  1  0
 26 30  1  0
 27 31  2  0
 28 32  1  0
 29 33  1  0
 30 34  2  0
 32 35  1  0
  7  8  1  0
 11 12  1  0
 22 24  1  0
 31 34  1  0
 33 35  1  0
M  END
>  <MolRegNo>  (1) 
426825

>  <m>  (1) 
=

>  <Value>  (1) 
4800

>  <Unit>  (1) 
nM

>  <Type>  (1) 
IC50

>  <pValue>  (1) 
5.32

>  <Ligand Efficiency>  (1) 
0

>  <Binding Efficiency>  (1) 
0

>  <Surface Efficiency>  (1) 
0

>  <Assay Index>  (1) 
328211

>  <Assay Category>  (1) 


>  <Assay Organism>  (1) 


>  <Target ID>  (1) 
11365

>  <Target Name>  (1) 
Cytochrome P450 2D6

>  <Target Organism>  (1) 
Homo sapiens

>  <Target Description>  (1) 
Target is a single protein chain

>  <Sequence Accession>  (1) 
P10635

>  <Reference>  (1) 
Bioorg Med Chem Lett 18 (12), 3500-3503 (2008)

>  <Pubmed ID>  (1) 
18502123

>  <DOI>  (1) 
10.1016/j.bmcl.2008.05.027

$$$$
