4wnv_ligand_867
     RDKit          2D

 28 32  0  0  0  0  0  0  0  0999 V2000
    0.0000   -0.0000   -0.0000 F   0  0  0  0  0  0  0  0  0  0  0  0
   -1.0151   -1.0978   -0.0000 C   0  0  0  0  0  0  0  0  0  0  0  0
   -0.5666   -2.5142   -0.0000 C   0  0  0  0  0  0  0  0  0  0  0  0
   -2.4906   -0.7791   -0.0000 C   0  0  0  0  0  0  0  0  0  0  0  0
   -1.5817   -3.6120   -0.0000 C   0  0  0  0  0  0  0  0  0  0  0  0
   -3.5057   -1.8768   -0.0000 C   0  0  0  0  0  0  0  0  0  0  0  0
   -3.0572   -3.2933   -0.0000 C   0  0  0  0  0  0  0  0  0  0  0  0
   -4.0723   -4.3910   -0.0000 C   0  0  0  0  0  0  0  0  0  0  0  0
   -3.6238   -5.8075   -0.0000 N   0  0  0  0  0  0  0  0  0  0  0  0
   -4.5209   -7.0115   -0.0000 C   0  0  0  0  0  0  0  0  0  0  0  0
   -2.2073   -6.2560   -0.0000 C   0  0  0  0  0  0  0  0  0  0  0  0
   -3.6474   -8.2155   -0.0000 N   0  0  0  0  0  0  0  0  0  0  0  0
   -6.0318   -6.9997   -0.0000 N   0  0  0  0  0  0  0  0  0  0  0  0
   -2.2191   -7.7433   -0.0000 C   0  0  0  0  0  0  0  0  0  0  0  0
   -0.9207   -5.4888   -0.0000 C   0  0  0  0  0  0  0  0  0  0  0  0
   -6.7990   -8.2863   -0.0000 C   0  0  0  0  0  0  0  0  0  0  0  0
   -6.7990   -5.6894   -0.0000 C   0  0  0  0  0  0  0  0  0  0  0  0
   -0.9325   -8.4870   -0.0000 C   0  0  0  0  0  0  0  0  0  0  0  0
    0.3659   -6.2324   -0.0000 C   0  0  0  0  0  0  0  0  0  0  0  0
   -8.3099   -8.2745   -0.0000 C   0  0  0  0  0  0  0  0  0  0  0  0
   -8.3099   -5.6776   -0.0000 C   0  0  0  0  0  0  0  0  0  0  0  0
    0.3541   -7.7197   -0.0000 C   0  0  0  0  0  0  0  0  0  0  0  0
   -9.0653   -6.9643   -0.0000 C   0  0  0  0  0  0  0  0  0  0  0  0
  -10.5762   -6.9525   -0.0000 N   0  0  0  0  0  0  0  0  0  0  0  0
  -11.4733   -5.7249   -0.0000 C   0  0  0  0  0  0  0  0  0  0  0  0
  -11.4733   -8.1564   -0.0000 C   0  0  0  0  0  0  0  0  0  0  0  0
  -12.9134   -6.1734   -0.0000 N   0  0  0  0  0  0  0  0  0  0  0  0
  -12.9134   -7.6843   -0.0000 C   0  0  0  0  0  0  0  0  0  0  0  0
  1  2  1  0
  2  3  2  0
  2  4  1  0
  3  5  1  0
  4  6  2  0
  5  7  2  0
  7  8  1  0
  8  9  1  0
  9 10  1  0
  9 11  1  0
 10 12  2  0
 10 13  1  0
 11 14  2  0
 11 15  1  0
 13 16  1  0
 13 17  1  0
 14 18  1  0
 15 19  2  0
 16 20  1  0
 17 21  1  0
 18 22  2  0
 20 23  1  0
 23 24  1  0
 24 25  1  0
 24 26  1  0
 25 27  2  0
 26 28  2  0
  6  7  1  0
 12 14  1  0
 19 22  1  0
 21 23  1  0
 27 28  1  0
M  END
>  <MolRegNo>  (1) 
566468

>  <m>  (1) 
=

>  <Value>  (1) 
1117

>  <Unit>  (1) 
nM

>  <Type>  (1) 
IC50

>  <pValue>  (1) 
5.95

>  <Ligand Efficiency>  (1) 
0

>  <Binding Efficiency>  (1) 
0

>  <Surface Efficiency>  (1) 
0

>  <Assay Index>  (1) 
429822

>  <Assay Category>  (1) 


>  <Assay Organism>  (1) 


>  <Target ID>  (1) 
11365

>  <Target Name>  (1) 
Cytochrome P450 2D6

>  <Target Organism>  (1) 
Homo sapiens

>  <Target Description>  (1) 
Target is a single protein chain

>  <Sequence Accession>  (1) 
P10635

>  <Reference>  (1) 
Bioorg Med Chem Lett 19 (15), 4380-4384 (2009)

>  <Pubmed ID>  (1) 
19553115

>  <DOI>  (1) 
10.1016/j.bmcl.2009.05.086

$$$$
