4wnv_ligand_205
     RDKit          2D

 33 36  0  0  1  0  0  0  0  0999 V2000
    0.0000   -0.0000   -0.0000 S   0  0  0  0  0  0  0  0  0  0  0  0
    1.4899    0.0119   -0.0000 O   0  0  0  0  0  0  0  0  0  0  0  0
   -1.5137    0.0119   -0.0000 O   0  0  0  0  0  0  0  0  0  0  0  0
   -0.0119    1.5137   -0.0000 N   0  0  0  0  0  0  0  0  0  0  0  0
   -0.0238   -1.4899   -0.0000 C   0  0  0  0  0  0  0  0  0  0  0  0
    1.2753    2.2765   -0.0000 C   0  0  0  0  0  0  0  0  0  0  0  0
    2.5506    1.5375   -0.0000 C   0  0  0  0  0  0  0  0  0  0  0  0
    1.2634    3.7902   -0.0000 C   0  0  0  0  0  0  0  0  0  0  0  0
    3.8260    2.2884   -0.0000 C   0  0  0  0  0  0  0  0  0  0  0  0
    2.5506    4.5411   -0.0000 C   0  0  0  0  0  0  0  0  0  0  0  0
    3.8260    3.8021   -0.0000 C   0  0  0  0  0  0  0  0  0  0  0  0
    5.1132    1.5495   -0.0000 C   0  0  0  0  0  0  0  0  0  0  0  0
    5.1132    4.5649   -0.0000 O   0  0  0  0  0  0  0  0  0  0  0  0
    6.4124    2.3123   -0.0000 C   0  0  0  0  0  0  0  0  0  0  0  0
    6.4124    3.8260   -0.0000 C   0  0  0  0  0  0  0  0  0  0  0  0
    7.6996    4.5888   -0.0000 C   0  0  0  0  0  0  0  0  0  0  0  0
    7.6877    6.1025   -0.0000 O   0  0  0  0  0  0  0  0  0  0  0  0
    8.9868    3.8498   -0.0000 N   0  0  0  0  0  0  0  0  0  0  0  0
   10.2741    4.6126   -0.0000 C   0  0  0  0  0  0  0  0  0  0  0  0
    8.9749    2.3599   -0.0000 C   0  0  0  0  0  0  0  0  0  0  0  0
   10.2622    6.1263   -0.0000 C   0  0  0  0  0  0  0  0  0  0  0  0
   11.5613    3.8736   -0.0000 C   0  0  0  0  0  0  0  0  0  0  0  0
    8.9511    6.8891   -0.0000 C   0  0  0  0  0  0  0  0  0  0  0  0
   11.5613    6.8891   -0.0000 C   0  0  0  0  0  0  0  0  0  0  0  0
   12.8485    4.6364   -0.0000 N   0  0  0  0  0  0  0  0  0  0  0  0
    8.9392    8.4147   -0.0000 C   0  0  0  0  0  0  0  0  0  0  0  0
   11.5494    8.4147   -0.0000 C   0  0  0  0  0  0  0  0  0  0  0  0
   14.2073    4.0405   -0.0000 C   0  0  0  0  0  0  0  0  0  0  0  0
   12.9916    6.1501   -0.0000 C   0  0  0  0  0  0  0  0  0  0  0  0
   10.2264    9.1775   -0.0000 C   0  0  0  0  0  0  0  0  0  0  0  0
   15.1966    5.1728   -0.0000 C   0  0  0  0  0  0  0  0  0  0  0  0
   14.4457    6.4720   -0.0000 C   0  0  0  0  0  0  0  0  0  0  0  0
   16.6745    5.0298   -0.0000 O   0  0  0  0  0  0  0  0  0  0  0  0
  1  2  2  0
  1  3  2  0
  1  4  1  0
  1  5  1  0
  4  6  1  0
  6  7  2  0
  6  8  1  0
  7  9  1  0
  8 10  2  0
  9 11  2  0
  9 12  1  0
 11 13  1  0
 12 14  1  0
 13 15  1  0
 15 16  1  0
 16 17  2  0
 16 18  1  0
 19 18  1  0
 18 20  1  0
 19 21  1  0
 19 22  1  1
 21 23  2  0
 21 24  1  0
 22 25  1  0
 23 26  1  0
 24 27  2  0
 25 28  1  0
 25 29  1  0
 26 30  2  0
 28 31  1  0
 29 32  1  0
 31 33  1  6
 10 11  1  0
 14 15  1  0
 27 30  1  0
 31 32  1  0
M  END
>  <MolRegNo>  (1) 
331928

>  <m>  (1) 
=

>  <Value>  (1) 
6200

>  <Unit>  (1) 
nM

>  <Type>  (1) 
IC50

>  <pValue>  (1) 
5.21

>  <Ligand Efficiency>  (1) 
0

>  <Binding Efficiency>  (1) 
0

>  <Surface Efficiency>  (1) 
0

>  <Assay Index>  (1) 
253815

>  <Assay Category>  (1) 


>  <Assay Organism>  (1) 
Homo sapiens

>  <Target ID>  (1) 
11365

>  <Target Name>  (1) 
Cytochrome P450 2D6

>  <Target Organism>  (1) 
Homo sapiens

>  <Target Description>  (1) 
Target is a single protein chain

>  <Sequence Accession>  (1) 
P10635

>  <Reference>  (1) 
Bioorg Med Chem Lett 15 (23), 5114-5119 (2005)

>  <Pubmed ID>  (1) 
16203140

>  <DOI>  (1) 
10.1016/j.bmcl.2005.08.094

$$$$
