4wnv_ligand_925
     RDKit          2D

 27 29  0  0  0  0  0  0  0  0999 V2000
    0.0000   -0.0000   -0.0000 Br  0  0  0  0  0  0  0  0  0  0  0  0
    1.3015   -0.7284   -0.0000 C   0  0  0  0  0  0  0  0  0  0  0  0
    1.3015   -2.2089   -0.0000 C   0  0  0  0  0  0  0  0  0  0  0  0
    2.5791    0.0478   -0.0000 C   0  0  0  0  0  0  0  0  0  0  0  0
    2.5910   -2.9492   -0.0000 C   0  0  0  0  0  0  0  0  0  0  0  0
   -0.0119   -2.9492   -0.0000 C   0  0  0  0  0  0  0  0  0  0  0  0
    3.8806   -0.6925   -0.0000 C   0  0  0  0  0  0  0  0  0  0  0  0
    3.8806   -2.1851   -0.0000 C   0  0  0  0  0  0  0  0  0  0  0  0
   -0.0239   -4.4418   -0.0000 N   0  0  0  0  0  0  0  0  0  0  0  0
   -1.3373   -5.1820   -0.0000 C   0  0  0  0  0  0  0  0  0  0  0  0
    1.2657   -5.1820   -0.0000 C   0  0  0  0  0  0  0  0  0  0  0  0
   -1.3492   -6.6865   -0.0000 C   0  0  0  0  0  0  0  0  0  0  0  0
   -2.6507   -4.4179   -0.0000 C   0  0  0  0  0  0  0  0  0  0  0  0
    1.4209   -6.6746   -0.0000 C   0  0  0  0  0  0  0  0  0  0  0  0
    2.6388   -4.5612   -0.0000 C   0  0  0  0  0  0  0  0  0  0  0  0
   -2.6746   -7.4268   -0.0000 C   0  0  0  0  0  0  0  0  0  0  0  0
   -3.9641   -5.1582   -0.0000 C   0  0  0  0  0  0  0  0  0  0  0  0
    2.8776   -6.9731   -0.0000 N   0  0  0  0  0  0  0  0  0  0  0  0
    3.6418   -5.6597   -0.0000 C   0  0  0  0  0  0  0  0  0  0  0  0
   -2.6865   -8.9193   -0.0000 Cl  0  0  0  0  0  0  0  0  0  0  0  0
   -3.9880   -6.6626   -0.0000 C   0  0  0  0  0  0  0  0  0  0  0  0
    3.4746   -8.3343   -0.0000 C   0  0  0  0  0  0  0  0  0  0  0  0
   -5.3014   -7.4029   -0.0000 C   0  0  0  0  0  0  0  0  0  0  0  0
    2.5791   -9.5402   -0.0000 O   0  0  0  0  0  0  0  0  0  0  0  0
    4.9671   -8.4775   -0.0000 C   0  0  0  0  0  0  0  0  0  0  0  0
   -6.6149   -8.1432   -0.0000 N   0  0  0  0  0  0  0  0  0  0  0  0
    5.5761   -9.8387   -0.0000 C   0  0  0  0  0  0  0  0  0  0  0  0
  1  2  1  0
  2  3  2  0
  2  4  1  0
  3  5  1  0
  3  6  1  0
  4  7  2  0
  5  8  2  0
  6  9  1  0
  9 10  1  0
 11  9  1  1
 10 12  2  0
 10 13  1  0
 11 14  1  0
 11 15  1  0
 12 16  1  0
 13 17  2  0
 14 18  1  0
 15 19  1  0
 16 20  1  0
 16 21  2  0
 18 22  1  0
 21 23  1  0
 22 24  2  0
 22 25  1  0
 23 26  3  0
 25 27  1  0
  7  8  1  0
 17 21  1  0
 18 19  1  0
M  END
>  <MolRegNo>  (1) 
590233

>  <m>  (1) 
=

>  <Value>  (1) 
7500

>  <Unit>  (1) 
nM

>  <Type>  (1) 
IC50

>  <pValue>  (1) 
5.12

>  <Ligand Efficiency>  (1) 
0

>  <Binding Efficiency>  (1) 
0

>  <Surface Efficiency>  (1) 
0

>  <Assay Index>  (1) 
452357

>  <Assay Category>  (1) 


>  <Assay Organism>  (1) 


>  <Target ID>  (1) 
11365

>  <Target Name>  (1) 
Cytochrome P450 2D6

>  <Target Organism>  (1) 
Homo sapiens

>  <Target Description>  (1) 
Target is a single protein chain

>  <Sequence Accession>  (1) 
P10635

>  <Reference>  (1) 
Bioorg Med Chem Lett 20 (1), 371-374 (2010)

>  <Pubmed ID>  (1) 
19926282

>  <DOI>  (1) 
10.1016/j.bmcl.2009.10.092

$$$$
