4wnv_ligand_93
     RDKit          2D

 18 20  0  0  0  0  0  0  0  0999 V2000
    0.0000   -0.0000   -0.0000 N   0  0  0  0  0  0  0  0  0  0  0  0
    0.9570    1.1460   -0.0000 C   0  0  0  0  0  0  0  0  0  0  0  0
    0.4844   -1.4060   -0.0000 C   0  0  0  0  0  0  0  0  0  0  0  0
    2.4221    0.8743   -0.0000 C   0  0  0  0  0  0  0  0  0  0  0  0
    1.9495   -1.6659   -0.0000 C   0  0  0  0  0  0  0  0  0  0  0  0
    3.2964    2.0912   -0.0000 C   0  0  0  0  0  0  0  0  0  0  0  0
    2.9065   -0.5199   -0.0000 C   0  0  0  0  0  0  0  0  0  0  0  0
    4.7850    2.1030   -0.0000 N   0  0  0  0  0  0  0  0  0  0  0  0
    2.8238    3.5327   -0.0000 C   0  0  0  0  0  0  0  0  0  0  0  0
    5.2458    3.5445   -0.0000 C   0  0  0  0  0  0  0  0  0  0  0  0
    4.0289    4.3951   -0.0000 N   0  0  0  0  0  0  0  0  0  0  0  0
    4.0171    5.9074   -0.0000 C   0  0  0  0  0  0  0  0  0  0  0  0
    2.7056    6.6754   -0.0000 C   0  0  0  0  0  0  0  0  0  0  0  0
    2.6938    8.1877   -0.0000 C   0  0  0  0  0  0  0  0  0  0  0  0
    1.3942    5.9429   -0.0000 C   0  0  0  0  0  0  0  0  0  0  0  0
    1.3823    8.9439   -0.0000 C   0  0  0  0  0  0  0  0  0  0  0  0
    0.0827    6.6990   -0.0000 C   0  0  0  0  0  0  0  0  0  0  0  0
    0.0709    8.2113   -0.0000 C   0  0  0  0  0  0  0  0  0  0  0  0
  1  2  2  0
  1  3  1  0
  2  4  1  0
  3  5  2  0
  4  6  1  0
  4  7  2  0
  6  8  1  0
  6  9  2  0
  8 10  2  0
  9 11  1  0
 11 12  1  0
 12 13  1  0
 13 14  2  0
 13 15  1  0
 14 16  1  0
 15 17  2  0
 16 18  2  0
  5  7  1  0
 10 11  1  0
 17 18  1  0
M  END
>  <MolRegNo>  (1) 
299559

>  <m>  (1) 
=

>  <Value>  (1) 
36300

>  <Unit>  (1) 
nM

>  <Type>  (1) 
IC50

>  <pValue>  (1) 
4.44

>  <Ligand Efficiency>  (1) 
0

>  <Binding Efficiency>  (1) 
0

>  <Surface Efficiency>  (1) 
0

>  <Assay Index>  (1) 
238570

>  <Assay Category>  (1) 


>  <Assay Organism>  (1) 
Homo sapiens

>  <Target ID>  (1) 
11365

>  <Target Name>  (1) 
Cytochrome P450 2D6

>  <Target Organism>  (1) 
Homo sapiens

>  <Target Description>  (1) 
Target is a single protein chain

>  <Sequence Accession>  (1) 
P10635

>  <Reference>  (1) 
J Med Chem 48 (1), 224-239 (2005)

>  <Pubmed ID>  (1) 
15634016

>  <DOI>  (1) 
10.1021/jm049696n

$$$$
