4wnv_ligand_107
     RDKit          2D

 39 42  0  0  0  0  0  0  0  0999 V2000
    0.0000   -0.0000   -0.0000 S   0  0  0  0  0  0  0  0  0  0  0  0
   -0.1846   -1.4398   -0.0000 C   0  0  0  0  0  0  0  0  0  0  0  0
    1.4398    0.2769   -0.0000 C   0  0  0  0  0  0  0  0  0  0  0  0
   -1.4952   -2.1228   -0.0000 C   0  0  0  0  0  0  0  0  0  0  0  0
    1.1076   -2.0674   -0.0000 C   0  0  0  0  0  0  0  0  0  0  0  0
    2.1228   -0.9783   -0.0000 C   0  0  0  0  0  0  0  0  0  0  0  0
    2.0674    1.6429   -0.0000 C   0  0  0  0  0  0  0  0  0  0  0  0
   -1.5137   -3.5073   -0.0000 C   0  0  0  0  0  0  0  0  0  0  0  0
   -2.8058   -1.4029   -0.0000 C   0  0  0  0  0  0  0  0  0  0  0  0
    4.3933    1.7721   -0.0000 N   0  0  0  0  0  0  0  0  0  0  0  0
   -2.8243   -4.1903   -0.0000 N   0  0  0  0  0  0  0  0  0  0  0  0
   -4.1164   -2.0859   -0.0000 C   0  0  0  0  0  0  0  0  0  0  0  0
   -4.1349   -3.4703   -0.0000 C   0  0  0  0  0  0  0  0  0  0  0  0
   -8.1221    0.1477   -0.0000 S   0  0  0  0  0  0  0  0  0  0  0  0
   -8.3251   -1.2921   -0.0000 C   0  0  0  0  0  0  0  0  0  0  0  0
   -6.7007    0.4246   -0.0000 C   0  0  0  0  0  0  0  0  0  0  0  0
   -9.6357   -1.9751   -0.0000 C   0  0  0  0  0  0  0  0  0  0  0  0
   -7.0330   -1.9013   -0.0000 C   0  0  0  0  0  0  0  0  0  0  0  0
   -6.0177   -0.8491   -0.0000 C   0  0  0  0  0  0  0  0  0  0  0  0
   -6.0731    1.7905   -0.0000 C   0  0  0  0  0  0  0  0  0  0  0  0
   -9.6542   -3.3596   -0.0000 C   0  0  0  0  0  0  0  0  0  0  0  0
  -10.9648   -1.2552   -0.0000 C   0  0  0  0  0  0  0  0  0  0  0  0
   -3.7472    1.9198   -0.0000 N   0  0  0  0  0  0  0  0  0  0  0  0
  -10.9833   -4.0426   -0.0000 N   0  0  0  0  0  0  0  0  0  0  0  0
  -12.2754   -1.9382   -0.0000 C   0  0  0  0  0  0  0  0  0  0  0  0
  -12.2939   -3.3227   -0.0000 C   0  0  0  0  0  0  0  0  0  0  0  0
  -18.1639    0.1477   -0.0000 S   0  0  0  0  0  0  0  0  0  0  0  0
  -18.3854   -1.2921   -0.0000 C   0  0  0  0  0  0  0  0  0  0  0  0
  -16.7426    0.4061   -0.0000 C   0  0  0  0  0  0  0  0  0  0  0  0
  -19.6776   -1.9751   -0.0000 C   0  0  0  0  0  0  0  0  0  0  0  0
  -17.0748   -1.9198   -0.0000 C   0  0  0  0  0  0  0  0  0  0  0  0
  -16.0780   -0.8676   -0.0000 C   0  0  0  0  0  0  0  0  0  0  0  0
  -16.1149    1.7721   -0.0000 C   0  0  0  0  0  0  0  0  0  0  0  0
  -19.6960   -3.3780   -0.0000 C   0  0  0  0  0  0  0  0  0  0  0  0
  -21.0067   -1.2552   -0.0000 C   0  0  0  0  0  0  0  0  0  0  0  0
  -14.6567    1.9013   -0.0000 N   0  0  0  0  0  0  0  0  0  0  0  0
  -21.0251   -4.0426   -0.0000 N   0  0  0  0  0  0  0  0  0  0  0  0
  -22.2988   -1.9382   -0.0000 C   0  0  0  0  0  0  0  0  0  0  0  0
  -22.3173   -3.3411   -0.0000 C   0  0  0  0  0  0  0  0  0  0  0  0
  1  2  1  0
  1  3  1  0
  2  4  1  0
  2  5  2  0
  3  6  2  0
  3  7  1  0
  4  8  2  0
  4  9  1  0
  7 10  2  0
  8 11  1  0
  9 12  2  0
 11 13  2  0
 14 15  1  0
 14 16  1  0
 15 17  1  0
 15 18  2  0
 16 19  2  0
 16 20  1  0
 17 21  2  0
 17 22  1  0
 20 23  2  0
 21 24  1  0
 22 25  2  0
 24 26  2  0
 27 28  1  0
 27 29  1  0
 28 30  1  0
 28 31  2  0
 29 32  2  0
 29 33  1  0
 30 34  2  0
 30 35  1  0
 33 36  1  0
 34 37  1  0
 35 38  2  0
 37 39  2  0
  5  6  1  0
 12 13  1  0
 18 19  1  0
 25 26  1  0
 31 32  1  0
 38 39  1  0
M  END
>  <MolRegNo>  (1) 
299621

>  <m>  (1) 
=

>  <Value>  (1) 
197000

>  <Unit>  (1) 
nM

>  <Type>  (1) 
IC50

>  <pValue>  (1) 
0

>  <Ligand Efficiency>  (1) 
0

>  <Binding Efficiency>  (1) 
0

>  <Surface Efficiency>  (1) 
0

>  <Assay Index>  (1) 
238570

>  <Assay Category>  (1) 


>  <Assay Organism>  (1) 
Homo sapiens

>  <Target ID>  (1) 
11365

>  <Target Name>  (1) 
Cytochrome P450 2D6

>  <Target Organism>  (1) 
Homo sapiens

>  <Target Description>  (1) 
Target is a single protein chain

>  <Sequence Accession>  (1) 
P10635

>  <Reference>  (1) 
J Med Chem 48 (1), 224-239 (2005)

>  <Pubmed ID>  (1) 
15634016

>  <DOI>  (1) 
10.1021/jm049696n

$$$$
