4wnv_ligand_479
     RDKit          2D

 39 42  0  0  1  0  0  0  0  0999 V2000
    0.0000   -0.0000   -0.0000 F   0  0  0  0  0  0  0  0  0  0  0  0
    1.4937   -0.0000   -0.0000 C   0  0  0  0  0  0  0  0  0  0  0  0
    2.2287   -1.2922   -0.0000 C   0  0  0  0  0  0  0  0  0  0  0  0
    2.2405    1.3040   -0.0000 C   0  0  0  0  0  0  0  0  0  0  0  0
    3.7223   -1.2922   -0.0000 C   0  0  0  0  0  0  0  0  0  0  0  0
    3.7223    1.3159   -0.0000 C   0  0  0  0  0  0  0  0  0  0  0  0
    4.4692    0.0237   -0.0000 C   0  0  0  0  0  0  0  0  0  0  0  0
    5.9629    0.0356   -0.0000 C   0  0  0  0  0  0  0  0  0  0  0  0
    6.7097    1.3514   -0.0000 C   0  0  0  0  0  0  0  0  0  0  0  0
    8.2034    1.3633   -0.0000 C   0  0  0  0  0  0  0  0  0  0  0  0
    5.9392    2.6673   -0.0000 C   0  0  0  0  0  0  0  0  0  0  0  0
    8.9502    2.6673   -0.0000 N   0  0  0  0  0  0  0  0  0  0  0  0
    6.6860    3.9831   -0.0000 C   0  0  0  0  0  0  0  0  0  0  0  0
   10.4439    2.6673   -0.0000 C   0  0  0  0  0  0  0  0  0  0  0  0
    8.1915    3.9831   -0.0000 C   0  0  0  0  0  0  0  0  0  0  0  0
   11.1907    3.9831   -0.0000 N   0  0  0  0  0  0  0  0  0  0  0  0
   11.1789    1.3751   -0.0000 C   0  0  0  0  0  0  0  0  0  0  0  0
   10.4320    5.2990   -0.0000 C   0  0  0  0  0  0  0  0  0  0  0  0
   12.6844    3.9831   -0.0000 C   0  0  0  0  0  0  0  0  0  0  0  0
   12.6726    1.3751   -0.0000 C   0  0  0  0  0  0  0  0  0  0  0  0
   13.4194    2.6910   -0.0000 N   0  0  0  0  0  0  0  0  0  0  0  0
   13.4075    0.0830   -0.0000 C   0  0  0  0  0  0  0  0  0  0  0  0
   14.9131    2.6910   -0.0000 C   0  0  0  0  0  0  0  0  0  0  0  0
   15.6481    1.3988   -0.0000 O   0  0  0  0  0  0  0  0  0  0  0  0
   15.6599    4.0069   -0.0000 N   0  0  0  0  0  0  0  0  0  0  0  0
   17.1536    4.0069   -0.0000 C   0  0  0  0  0  0  0  0  0  0  0  0
   17.8767    2.7147   -0.0000 C   0  0  0  0  0  0  0  0  0  0  0  0
   17.8886    5.3227   -0.0000 C   0  0  0  0  0  0  0  0  0  0  0  0
   19.3704    2.7147   -0.0000 C   0  0  0  0  0  0  0  0  0  0  0  0
   19.3823    5.3346   -0.0000 C   0  0  0  0  0  0  0  0  0  0  0  0
   20.1172    1.4226   -0.0000 C   0  0  0  0  0  0  0  0  0  0  0  0
   20.1172    4.0306   -0.0000 C   0  0  0  0  0  0  0  0  0  0  0  0
   20.1291    6.6504   -0.0000 C   0  0  0  0  0  0  0  0  0  0  0  0
   21.5991    1.2684   -0.0000 N   0  0  0  0  0  0  0  0  0  0  0  0
   19.4890    0.0593   -0.0000 N   0  0  0  0  0  0  0  0  0  0  0  0
   21.5754    7.0535   -0.0000 C   0  0  0  0  0  0  0  0  0  0  0  0
   21.8954   -0.1897   -0.0000 N   0  0  0  0  0  0  0  0  0  0  0  0
   20.5914   -0.9484   -0.0000 N   0  0  0  0  0  0  0  0  0  0  0  0
   18.0071   -0.2371   -0.0000 C   0  0  0  0  0  0  0  0  0  0  0  0
  1  2  1  0
  2  3  2  0
  2  4  1  0
  3  5  1  0
  4  6  2  0
  5  7  2  0
  7  8  1  0
  9  8  1  6
  9 10  1  0
  9 11  1  0
 10 12  1  0
 11 13  1  0
 14 12  1  0
 12 15  1  0
 14 16  1  0
 14 17  1  6
 16 18  1  0
 16 19  1  0
 17 20  1  0
 20 21  1  0
 20 22  1  6
 21 23  1  0
 23 24  2  0
 23 25  1  0
 25 26  1  0
 26 27  2  0
 26 28  1  0
 27 29  1  0
 28 30  2  0
 29 31  1  0
 29 32  2  0
 30 33  1  0
 31 34  2  0
 31 35  1  0
 33 36  1  0
 34 37  1  0
 35 38  1  0
 35 39  1  0
  6  7  1  0
 13 15  1  0
 30 32  1  0
 37 38  2  0
M  END
>  <MolRegNo>  (1) 
438214

>  <m>  (1) 
=

>  <Value>  (1) 
1400

>  <Unit>  (1) 
nM

>  <Type>  (1) 
IC50

>  <pValue>  (1) 
5.85

>  <Ligand Efficiency>  (1) 
0

>  <Binding Efficiency>  (1) 
0

>  <Surface Efficiency>  (1) 
0

>  <Assay Index>  (1) 
314783

>  <Assay Category>  (1) 


>  <Assay Organism>  (1) 


>  <Target ID>  (1) 
11365

>  <Target Name>  (1) 
Cytochrome P450 2D6

>  <Target Organism>  (1) 
Homo sapiens

>  <Target Description>  (1) 
Target is a single protein chain

>  <Sequence Accession>  (1) 
P10635

>  <Reference>  (1) 
Bioorg Med Chem Lett 18 (2), 576-585 (2008)

>  <Pubmed ID>  (1) 
18096386

>  <DOI>  (1) 
10.1016/j.bmcl.2007.11.067

$$$$
