4wnv_ligand_256
     RDKit          2D

 29 32  0  0  0  0  0  0  0  0999 V2000
    0.0000   -0.0000   -0.0000 O   0  0  0  0  0  0  0  0  0  0  0  0
    1.2791    0.7698   -0.0000 C   0  0  0  0  0  0  0  0  0  0  0  0
   -1.3146    0.7461   -0.0000 C   0  0  0  0  0  0  0  0  0  0  0  0
    2.5819    0.0355   -0.0000 C   0  0  0  0  0  0  0  0  0  0  0  0
    1.2554    2.2740   -0.0000 C   0  0  0  0  0  0  0  0  0  0  0  0
   -2.6174   -0.0000   -0.0000 C   0  0  0  0  0  0  0  0  0  0  0  0
    3.8610    0.8054   -0.0000 C   0  0  0  0  0  0  0  0  0  0  0  0
    2.5345    3.0556   -0.0000 C   0  0  0  0  0  0  0  0  0  0  0  0
   -3.9321    0.7580   -0.0000 C   0  0  0  0  0  0  0  0  0  0  0  0
    3.8373    2.3213   -0.0000 C   0  0  0  0  0  0  0  0  0  0  0  0
   -5.2467    0.0237   -0.0000 N   0  0  0  0  0  0  0  0  0  0  0  0
    5.1164    3.0912   -0.0000 N   0  0  0  0  0  0  0  0  0  0  0  0
   -5.2586   -1.4686   -0.0000 C   0  0  0  0  0  0  0  0  0  0  0  0
   -6.5495    0.7817   -0.0000 C   0  0  0  0  0  0  0  0  0  0  0  0
    6.4074    2.3687   -0.0000 C   0  0  0  0  0  0  0  0  0  0  0  0
   -6.5613   -2.2029   -0.0000 C   0  0  0  0  0  0  0  0  0  0  0  0
   -7.8641    0.0474   -0.0000 C   0  0  0  0  0  0  0  0  0  0  0  0
    6.3955    0.8764   -0.0000 C   0  0  0  0  0  0  0  0  0  0  0  0
    7.6746    3.1385   -0.0000 C   0  0  0  0  0  0  0  0  0  0  0  0
   -7.8760   -1.4449   -0.0000 C   0  0  0  0  0  0  0  0  0  0  0  0
    7.6865    0.1540   -0.0000 C   0  0  0  0  0  0  0  0  0  0  0  0
    8.9656    2.4042   -0.0000 C   0  0  0  0  0  0  0  0  0  0  0  0
   -9.1906   -2.1792   -0.0000 C   0  0  0  0  0  0  0  0  0  0  0  0
    8.9656    0.9238   -0.0000 C   0  0  0  0  0  0  0  0  0  0  0  0
  -10.4934   -1.4212   -0.0000 C   0  0  0  0  0  0  0  0  0  0  0  0
  -11.8791   -2.0253   -0.0000 N   0  0  0  0  0  0  0  0  0  0  0  0
  -10.6711    0.0829   -0.0000 C   0  0  0  0  0  0  0  0  0  0  0  0
  -12.8977   -0.8883   -0.0000 C   0  0  0  0  0  0  0  0  0  0  0  0
  -12.1515    0.4027   -0.0000 N   0  0  0  0  0  0  0  0  0  0  0  0
  1  2  1  0
  1  3  1  0
  2  4  2  0
  2  5  1  0
  3  6  1  0
  4  7  1  0
  5  8  2  0
  6  9  1  0
  7 10  2  0
  9 11  1  0
 10 12  1  0
 11 13  1  0
 11 14  1  0
 12 15  1  0
 13 16  1  0
 14 17  1  0
 15 18  1  0
 15 19  1  0
 16 20  1  0
 18 21  1  0
 19 22  1  0
 20 23  1  0
 21 24  1  0
 23 25  1  0
 25 26  1  0
 25 27  2  0
 26 28  2  0
 27 29  1  0
  8 10  1  0
 17 20  1  0
 22 24  1  0
 28 29  1  0
M  END
>  <MolRegNo>  (1) 
339498

>  <m>  (1) 
=

>  <Value>  (1) 
900

>  <Unit>  (1) 
nM

>  <Type>  (1) 
IC50

>  <pValue>  (1) 
6.05

>  <Ligand Efficiency>  (1) 
0

>  <Binding Efficiency>  (1) 
0

>  <Surface Efficiency>  (1) 
0

>  <Assay Index>  (1) 
257619

>  <Assay Category>  (1) 


>  <Assay Organism>  (1) 
Homo sapiens

>  <Target ID>  (1) 
11365

>  <Target Name>  (1) 
Cytochrome P450 2D6

>  <Target Organism>  (1) 
Homo sapiens

>  <Target Description>  (1) 
Target is a single protein chain

>  <Sequence Accession>  (1) 
P10635

>  <Reference>  (1) 
Bioorg Med Chem Lett 16 (4), 989-994 (2006)

>  <Pubmed ID>  (1) 
16297617

>  <DOI>  (1) 
10.1016/j.bmcl.2005.10.087

$$$$
