4wnv_ligand_598
     RDKit          2D

 22 24  0  0  0  0  0  0  0  0999 V2000
    0.0000   -0.0000   -0.0000 O   0  0  0  0  0  0  0  0  0  0  0  0
   -0.0123   -1.2462   -0.0000 C   0  0  0  0  0  0  0  0  0  0  0  0
   -1.3943   -2.0112   -0.0000 C   0  0  0  0  0  0  0  0  0  0  0  0
    1.3326   -2.0112   -0.0000 C   0  0  0  0  0  0  0  0  0  0  0  0
   -2.7638   -1.2092   -0.0000 O   0  0  0  0  0  0  0  0  0  0  0  0
   -1.4066   -3.5658   -0.0000 C   0  0  0  0  0  0  0  0  0  0  0  0
    1.3202   -3.5658   -0.0000 C   0  0  0  0  0  0  0  0  0  0  0  0
    2.6775   -1.2215   -0.0000 C   0  0  0  0  0  0  0  0  0  0  0  0
   -2.7762    0.0617   -0.0000 C   0  0  0  0  0  0  0  0  0  0  0  0
   -0.0494   -4.3308   -0.0000 O   0  0  0  0  0  0  0  0  0  0  0  0
   -2.7762   -4.3432   -0.0000 C   0  0  0  0  0  0  0  0  0  0  0  0
    2.6651   -4.3308   -0.0000 C   0  0  0  0  0  0  0  0  0  0  0  0
    2.6651    0.0494   -0.0000 O   0  0  0  0  0  0  0  0  0  0  0  0
    4.0224   -1.9865   -0.0000 C   0  0  0  0  0  0  0  0  0  0  0  0
   -2.7885   -5.8978   -0.0000 C   0  0  0  0  0  0  0  0  0  0  0  0
   -4.1457   -3.5411   -0.0000 C   0  0  0  0  0  0  0  0  0  0  0  0
    4.0100   -3.5411   -0.0000 C   0  0  0  0  0  0  0  0  0  0  0  0
   -4.1581   -6.6628   -0.0000 C   0  0  0  0  0  0  0  0  0  0  0  0
   -5.5153   -4.3061   -0.0000 C   0  0  0  0  0  0  0  0  0  0  0  0
    5.0835   -4.1581   -0.0000 O   0  0  0  0  0  0  0  0  0  0  0  0
   -5.5276   -5.8608   -0.0000 C   0  0  0  0  0  0  0  0  0  0  0  0
   -6.6258   -6.4777   -0.0000 O   0  0  0  0  0  0  0  0  0  0  0  0
  1  2  2  0
  2  3  1  0
  2  4  1  0
  3  5  1  0
  3  6  2  0
  4  7  2  0
  4  8  1  0
  5  9  1  0
  6 10  1  0
  6 11  1  0
  7 12  1  0
  8 13  1  0
  8 14  2  0
 11 15  2  0
 11 16  1  0
 12 17  2  0
 15 18  1  0
 16 19  2  0
 17 20  1  0
 18 21  2  0
 21 22  1  0
  7 10  1  0
 14 17  1  0
 19 21  1  0
M  END
>  <MolRegNo>  (1) 
273440

>  <m>  (1) 
=

>  <Value>  (1) 
4630

>  <Unit>  (1) 
nM

>  <Type>  (1) 
IC50

>  <pValue>  (1) 
5.33

>  <Ligand Efficiency>  (1) 
0

>  <Binding Efficiency>  (1) 
0

>  <Surface Efficiency>  (1) 
0

>  <Assay Index>  (1) 
399811

>  <Assay Category>  (1) 


>  <Assay Organism>  (1) 
Homo sapiens

>  <Target ID>  (1) 
11365

>  <Target Name>  (1) 
Cytochrome P450 2D6

>  <Target Organism>  (1) 
Homo sapiens

>  <Target Description>  (1) 
Target is a single protein chain

>  <Sequence Accession>  (1) 
P10635

>  <Reference>  (1) 
J Nat Prod 67 (7), 1079-1083 (2004)

>  <Pubmed ID>  (1) 
15270556

>  <DOI>  (1) 
10.1021/np030556a

$$$$
