4wnv_ligand_244
     RDKit          2D

 20 22  0  0  0  0  0  0  0  0999 V2000
    0.0000   -0.0000   -0.0000 S   0  0  0  0  0  0  0  0  0  0  0  0
   -1.3744    0.6109   -0.0000 C   0  0  0  0  0  0  0  0  0  0  0  0
    0.9868    1.1160   -0.0000 C   0  0  0  0  0  0  0  0  0  0  0  0
   -1.2334    2.1145   -0.0000 N   0  0  0  0  0  0  0  0  0  0  0  0
   -2.6783   -0.1175   -0.0000 N   0  0  0  0  0  0  0  0  0  0  0  0
    0.2349    2.4199   -0.0000 C   0  0  0  0  0  0  0  0  0  0  0  0
   -3.9823    0.6461   -0.0000 C   0  0  0  0  0  0  0  0  0  0  0  0
   -3.9940    2.1497   -0.0000 O   0  0  0  0  0  0  0  0  0  0  0  0
   -5.2862   -0.0822   -0.0000 N   0  0  0  0  0  0  0  0  0  0  0  0
   -5.2980   -1.5624   -0.0000 C   0  0  0  0  0  0  0  0  0  0  0  0
   -6.5901    0.6696   -0.0000 C   0  0  0  0  0  0  0  0  0  0  0  0
   -6.6019   -2.3024   -0.0000 C   0  0  0  0  0  0  0  0  0  0  0  0
   -7.8941   -0.0587   -0.0000 C   0  0  0  0  0  0  0  0  0  0  0  0
   -7.9058   -1.5506   -0.0000 C   0  0  0  0  0  0  0  0  0  0  0  0
   -9.2098   -2.2907   -0.0000 C   0  0  0  0  0  0  0  0  0  0  0  0
  -10.5137   -1.5389   -0.0000 C   0  0  0  0  0  0  0  0  0  0  0  0
  -11.8881   -2.1380   -0.0000 N   0  0  0  0  0  0  0  0  0  0  0  0
  -10.6899   -0.0470   -0.0000 C   0  0  0  0  0  0  0  0  0  0  0  0
  -12.8984   -1.0103   -0.0000 C   0  0  0  0  0  0  0  0  0  0  0  0
  -12.1583    0.2819   -0.0000 N   0  0  0  0  0  0  0  0  0  0  0  0
  1  2  1  0
  1  3  1  0
  2  4  2  0
  2  5  1  0
  3  6  2  0
  5  7  1  0
  7  8  2  0
  7  9  1  0
  9 10  1  0
  9 11  1  0
 10 12  1  0
 11 13  1  0
 12 14  1  0
 14 15  1  0
 15 16  1  0
 16 17  1  0
 16 18  2  0
 17 19  2  0
 18 20  1  0
  4  6  1  0
 13 14  1  0
 19 20  1  0
M  END
>  <MolRegNo>  (1) 
339650

>  <m>  (1) 
=

>  <Value>  (1) 
2000

>  <Unit>  (1) 
nM

>  <Type>  (1) 
IC50

>  <pValue>  (1) 
5.7

>  <Ligand Efficiency>  (1) 
0

>  <Binding Efficiency>  (1) 
0

>  <Surface Efficiency>  (1) 
0

>  <Assay Index>  (1) 
257619

>  <Assay Category>  (1) 


>  <Assay Organism>  (1) 
Homo sapiens

>  <Target ID>  (1) 
11365

>  <Target Name>  (1) 
Cytochrome P450 2D6

>  <Target Organism>  (1) 
Homo sapiens

>  <Target Description>  (1) 
Target is a single protein chain

>  <Sequence Accession>  (1) 
P10635

>  <Reference>  (1) 
Bioorg Med Chem Lett 16 (4), 989-994 (2006)

>  <Pubmed ID>  (1) 
16297617

>  <DOI>  (1) 
10.1016/j.bmcl.2005.10.087

$$$$
