4wnv_ligand_875
     RDKit          2D

 33 37  0  0  0  0  0  0  0  0999 V2000
    0.0000   -0.0000   -0.0000 O   0  0  0  0  0  0  0  0  0  0  0  0
    0.7368   -1.2954   -0.0000 C   0  0  0  0  0  0  0  0  0  0  0  0
    0.7368    1.3191   -0.0000 C   0  0  0  0  0  0  0  0  0  0  0  0
    2.2342   -1.2835   -0.0000 C   0  0  0  0  0  0  0  0  0  0  0  0
    2.2342    1.3310   -0.0000 C   0  0  0  0  0  0  0  0  0  0  0  0
    2.9829    0.0357   -0.0000 C   0  0  0  0  0  0  0  0  0  0  0  0
    4.4803    0.0475   -0.0000 C   0  0  0  0  0  0  0  0  0  0  0  0
    5.2171   -1.2478   -0.0000 N   0  0  0  0  0  0  0  0  0  0  0  0
    6.7145   -1.2359   -0.0000 C   0  0  0  0  0  0  0  0  0  0  0  0
    4.4565   -2.5432   -0.0000 C   0  0  0  0  0  0  0  0  0  0  0  0
    7.4632   -2.5313   -0.0000 C   0  0  0  0  0  0  0  0  0  0  0  0
    7.4632    0.0832   -0.0000 C   0  0  0  0  0  0  0  0  0  0  0  0
    8.9606   -2.5194   -0.0000 C   0  0  0  0  0  0  0  0  0  0  0  0
    8.9606    0.0951   -0.0000 C   0  0  0  0  0  0  0  0  0  0  0  0
    9.6974   -1.2003   -0.0000 N   0  0  0  0  0  0  0  0  0  0  0  0
   11.1948   -1.1884   -0.0000 C   0  0  0  0  0  0  0  0  0  0  0  0
   12.0742    0.0475   -0.0000 N   0  0  0  0  0  0  0  0  0  0  0  0
   12.0742   -2.4006   -0.0000 N   0  0  0  0  0  0  0  0  0  0  0  0
   13.5003   -0.4041   -0.0000 C   0  0  0  0  0  0  0  0  0  0  0  0
   13.5003   -1.9252   -0.0000 C   0  0  0  0  0  0  0  0  0  0  0  0
   11.5988   -3.8267   -0.0000 C   0  0  0  0  0  0  0  0  0  0  0  0
   14.7956    0.3565   -0.0000 C   0  0  0  0  0  0  0  0  0  0  0  0
   14.7956   -2.6620   -0.0000 C   0  0  0  0  0  0  0  0  0  0  0  0
   12.5971   -4.9319   -0.0000 C   0  0  0  0  0  0  0  0  0  0  0  0
   16.0910   -0.3803   -0.0000 C   0  0  0  0  0  0  0  0  0  0  0  0
   16.0910   -1.9014   -0.0000 C   0  0  0  0  0  0  0  0  0  0  0  0
   12.1217   -6.3580   -0.0000 C   0  0  0  0  0  0  0  0  0  0  0  0
   14.0588   -4.6110   -0.0000 C   0  0  0  0  0  0  0  0  0  0  0  0
   13.1200   -7.4632   -0.0000 C   0  0  0  0  0  0  0  0  0  0  0  0
   15.0571   -5.7162   -0.0000 C   0  0  0  0  0  0  0  0  0  0  0  0
   14.5817   -7.1423   -0.0000 C   0  0  0  0  0  0  0  0  0  0  0  0
   15.5800   -8.2475   -0.0000 O   0  0  0  0  0  0  0  0  0  0  0  0
   17.0417   -7.9267   -0.0000 C   0  0  0  0  0  0  0  0  0  0  0  0
  1  2  1  0
  1  3  1  0
  2  4  1  0
  3  5  1  0
  4  6  1  0
  6  7  1  0
  7  8  1  0
  8  9  1  0
  8 10  1  0
  9 11  1  0
  9 12  1  0
 11 13  1  0
 12 14  1  0
 13 15  1  0
 15 16  1  0
 16 17  2  0
 16 18  1  0
 17 19  1  0
 18 20  1  0
 18 21  1  0
 19 22  2  0
 20 23  2  0
 21 24  1  0
 22 25  1  0
 23 26  1  0
 24 27  2  0
 24 28  1  0
 27 29  1  0
 28 30  2  0
 29 31  2  0
 31 32  1  0
 32 33  1  0
  5  6  1  0
 14 15  1  0
 19 20  1  0
 25 26  2  0
 30 31  1  0
M  END
>  <MolRegNo>  (1) 
566439

>  <m>  (1) 
=

>  <Value>  (1) 
8185

>  <Unit>  (1) 
nM

>  <Type>  (1) 
IC50

>  <pValue>  (1) 
5.09

>  <Ligand Efficiency>  (1) 
0

>  <Binding Efficiency>  (1) 
0

>  <Surface Efficiency>  (1) 
0

>  <Assay Index>  (1) 
429822

>  <Assay Category>  (1) 


>  <Assay Organism>  (1) 


>  <Target ID>  (1) 
11365

>  <Target Name>  (1) 
Cytochrome P450 2D6

>  <Target Organism>  (1) 
Homo sapiens

>  <Target Description>  (1) 
Target is a single protein chain

>  <Sequence Accession>  (1) 
P10635

>  <Reference>  (1) 
Bioorg Med Chem Lett 19 (15), 4380-4384 (2009)

>  <Pubmed ID>  (1) 
19553115

>  <DOI>  (1) 
10.1016/j.bmcl.2009.05.086

$$$$
