4wnv_ligand_1020
     RDKit          2D

 38 42  0  0  0  0  0  0  0  0999 V2000
    0.0000   -0.0000   -0.0000 O   0  0  0  0  0  0  0  0  0  0  0  0
   -1.3096    0.7669   -0.0000 C   0  0  0  0  0  0  0  0  0  0  0  0
   -1.3096    2.2771   -0.0000 N   0  0  0  0  0  0  0  0  0  0  0  0
   -2.6074    0.0472   -0.0000 N   0  0  0  0  0  0  0  0  0  0  0  0
   -0.0236    3.0203   -0.0000 C   0  0  0  0  0  0  0  0  0  0  0  0
   -2.6074    3.0439   -0.0000 C   0  0  0  0  0  0  0  0  0  0  0  0
   -3.9170    0.8141   -0.0000 C   0  0  0  0  0  0  0  0  0  0  0  0
   -3.9288    2.3242   -0.0000 C   0  0  0  0  0  0  0  0  0  0  0  0
   -5.2266    0.0944   -0.0000 C   0  0  0  0  0  0  0  0  0  0  0  0
   -5.2266    3.0911   -0.0000 C   0  0  0  0  0  0  0  0  0  0  0  0
   -6.5244    0.8613   -0.0000 C   0  0  0  0  0  0  0  0  0  0  0  0
   -6.5362    2.3714   -0.0000 C   0  0  0  0  0  0  0  0  0  0  0  0
   -7.8458    3.1383   -0.0000 C   0  0  0  0  0  0  0  0  0  0  0  0
   -8.3177    4.5659   -0.0000 N   0  0  0  0  0  0  0  0  0  0  0  0
   -9.0610    2.2653   -0.0000 C   0  0  0  0  0  0  0  0  0  0  0  0
   -9.8279    4.5777   -0.0000 N   0  0  0  0  0  0  0  0  0  0  0  0
   -9.0728    0.7787   -0.0000 C   0  0  0  0  0  0  0  0  0  0  0  0
  -10.2880    3.1501   -0.0000 C   0  0  0  0  0  0  0  0  0  0  0  0
  -10.7128    5.7929   -0.0000 C   0  0  0  0  0  0  0  0  0  0  0  0
  -10.3824    0.0472   -0.0000 C   0  0  0  0  0  0  0  0  0  0  0  0
   -7.7868    0.0590   -0.0000 C   0  0  0  0  0  0  0  0  0  0  0  0
  -10.1229    7.1733   -0.0000 C   0  0  0  0  0  0  0  0  0  0  0  0
  -10.3942   -1.4394   -0.0000 C   0  0  0  0  0  0  0  0  0  0  0  0
  -11.8100    0.5073   -0.0000 C   0  0  0  0  0  0  0  0  0  0  0  0
   -7.7986   -1.4276   -0.0000 C   0  0  0  0  0  0  0  0  0  0  0  0
   -9.1082   -2.1709   -0.0000 N   0  0  0  0  0  0  0  0  0  0  0  0
  -11.8336   -1.8877   -0.0000 N   0  0  0  0  0  0  0  0  0  0  0  0
  -12.6949   -0.6843   -0.0000 C   0  0  0  0  0  0  0  0  0  0  0  0
  -14.2050   -0.6725   -0.0000 C   0  0  0  0  0  0  0  0  0  0  0  0
  -14.9601   -1.9585   -0.0000 C   0  0  0  0  0  0  0  0  0  0  0  0
  -14.9719    0.6371   -0.0000 C   0  0  0  0  0  0  0  0  0  0  0  0
  -16.4585   -1.9467   -0.0000 C   0  0  0  0  0  0  0  0  0  0  0  0
  -16.4703    0.6489   -0.0000 C   0  0  0  0  0  0  0  0  0  0  0  0
  -17.2254   -0.6371   -0.0000 C   0  0  0  0  0  0  0  0  0  0  0  0
  -17.2254   -3.2327   -0.0000 C   0  0  0  0  0  0  0  0  0  0  0  0
  -18.7237   -3.2209   -0.0000 N   0  0  0  0  0  0  0  0  0  0  0  0
  -19.5496   -4.4597   -0.0000 C   0  0  0  0  0  0  0  0  0  0  0  0
  -19.4080   -1.8759   -0.0000 C   0  0  0  0  0  0  0  0  0  0  0  0
  1  2  2  0
  2  3  1  0
  2  4  1  0
  3  5  1  0
  3  6  1  0
  4  7  1  0
  7  8  2  0
  7  9  1  0
  8 10  1  0
  9 11  2  0
 10 12  2  0
 12 13  1  0
 13 14  2  0
 13 15  1  0
 14 16  1  0
 15 17  1  0
 15 18  2  0
 16 19  1  0
 17 20  1  0
 17 21  2  0
 19 22  1  0
 20 23  2  0
 20 24  1  0
 21 25  1  0
 23 26  1  0
 23 27  1  0
 24 28  2  0
 28 29  1  0
 29 30  2  0
 29 31  1  0
 30 32  1  0
 31 33  2  0
 32 34  2  0
 32 35  1  0
 35 36  1  0
 36 37  1  0
 36 38  1  0
 11 12  1  0
 16 18  1  0
 25 26  2  0
 27 28  1  0
 33 34  1  0
M  END
>  <MolRegNo>  (1) 
622556

>  <m>  (1) 
=

>  <Value>  (1) 
12000

>  <Unit>  (1) 
nM

>  <Type>  (1) 
IC50

>  <pValue>  (1) 
4.92

>  <Ligand Efficiency>  (1) 
0

>  <Binding Efficiency>  (1) 
0

>  <Surface Efficiency>  (1) 
0

>  <Assay Index>  (1) 
475987

>  <Assay Category>  (1) 


>  <Assay Organism>  (1) 
Homo sapiens

>  <Target ID>  (1) 
11365

>  <Target Name>  (1) 
Cytochrome P450 2D6

>  <Target Organism>  (1) 
Homo sapiens

>  <Target Description>  (1) 
Target is a single protein chain

>  <Sequence Accession>  (1) 
P10635

>  <Reference>  (1) 
J Med Chem 53 (10), 3973-4001 (2010)

>  <Pubmed ID>  (1) 
20420387

>  <DOI>  (1) 
10.1021/jm901870q

$$$$
