4wnv_ligand_721
     RDKit          2D

 27 30  0  0  0  0  0  0  0  0999 V2000
    0.0000   -0.0000   -0.0000 Br  0  0  0  0  0  0  0  0  0  0  0  0
    1.2886    0.7636   -0.0000 C   0  0  0  0  0  0  0  0  0  0  0  0
    2.5772    0.0239   -0.0000 C   0  0  0  0  0  0  0  0  0  0  0  0
    1.2767    2.2789   -0.0000 C   0  0  0  0  0  0  0  0  0  0  0  0
    3.8777    0.7875   -0.0000 C   0  0  0  0  0  0  0  0  0  0  0  0
    2.5653    3.0425   -0.0000 C   0  0  0  0  0  0  0  0  0  0  0  0
    5.1663    0.0477   -0.0000 N   0  0  0  0  0  0  0  0  0  0  0  0
    3.8658    2.3147   -0.0000 C   0  0  0  0  0  0  0  0  0  0  0  0
    6.4549    0.8113   -0.0000 C   0  0  0  0  0  0  0  0  0  0  0  0
    7.7435    0.0716   -0.0000 N   0  0  0  0  0  0  0  0  0  0  0  0
    6.4311    2.3266   -0.0000 C   0  0  0  0  0  0  0  0  0  0  0  0
    9.0321    0.8352   -0.0000 C   0  0  0  0  0  0  0  0  0  0  0  0
    7.7197    3.0903   -0.0000 C   0  0  0  0  0  0  0  0  0  0  0  0
    9.0202    2.3505   -0.0000 C   0  0  0  0  0  0  0  0  0  0  0  0
    7.6958    4.6056   -0.0000 C   0  0  0  0  0  0  0  0  0  0  0  0
   10.3088    3.1141   -0.0000 C   0  0  0  0  0  0  0  0  0  0  0  0
    8.4236    5.9180   -0.0000 C   0  0  0  0  0  0  0  0  0  0  0  0
    6.9203    5.9180   -0.0000 C   0  0  0  0  0  0  0  0  0  0  0  0
   10.2969    4.6294   -0.0000 O   0  0  0  0  0  0  0  0  0  0  0  0
   11.5974    2.3744   -0.0000 N   0  0  0  0  0  0  0  0  0  0  0  0
   12.8860    3.1380   -0.0000 C   0  0  0  0  0  0  0  0  0  0  0  0
   14.1746    2.3982   -0.0000 C   0  0  0  0  0  0  0  0  0  0  0  0
   14.1627    0.9068   -0.0000 C   0  0  0  0  0  0  0  0  0  0  0  0
   15.4513    3.1738   -0.0000 C   0  0  0  0  0  0  0  0  0  0  0  0
   15.4513    0.1670   -0.0000 C   0  0  0  0  0  0  0  0  0  0  0  0
   16.7399    2.4340   -0.0000 C   0  0  0  0  0  0  0  0  0  0  0  0
   16.7399    0.9307   -0.0000 O   0  0  0  0  0  0  0  0  0  0  0  0
  1  2  1  0
  2  3  2  0
  2  4  1  0
  3  5  1  0
  4  6  2  0
  5  7  1  0
  5  8  2  0
  7  9  1  0
  9 10  2  0
  9 11  1  0
 10 12  1  0
 11 13  2  0
 12 14  2  0
 13 15  1  0
 14 16  1  0
 15 17  1  0
 15 18  1  0
 16 19  2  0
 16 20  1  0
 20 21  1  0
 21 22  1  0
 22 23  1  0
 22 24  1  0
 23 25  1  0
 24 26  1  0
 25 27  1  0
  6  8  1  0
 13 14  1  0
 17 18  1  0
 26 27  1  0
M  END
>  <MolRegNo>  (1) 
472936

>  <m>  (1) 
=

>  <Value>  (1) 
16000

>  <Unit>  (1) 
nM

>  <Type>  (1) 
IC50

>  <pValue>  (1) 
4.8

>  <Ligand Efficiency>  (1) 
0

>  <Binding Efficiency>  (1) 
0

>  <Surface Efficiency>  (1) 
0

>  <Assay Index>  (1) 
409031

>  <Assay Category>  (1) 


>  <Assay Organism>  (1) 


>  <Target ID>  (1) 
11365

>  <Target Name>  (1) 
Cytochrome P450 2D6

>  <Target Organism>  (1) 
Homo sapiens

>  <Target Description>  (1) 
Target is a single protein chain

>  <Sequence Accession>  (1) 
P10635

>  <Reference>  (1) 
Bioorg Med Chem Lett 19 (1), 259-263 (2009)

>  <Pubmed ID>  (1) 
19010671

>  <DOI>  (1) 
10.1016/j.bmcl.2008.10.118

$$$$
