4wnv_ligand_330
     RDKit          2D

 26 28  0  0  0  0  0  0  0  0999 V2000
    0.0000   -0.0000   -0.0000 S   0  0  0  0  0  0  0  0  0  0  0  0
    0.7325    1.3089   -0.0000 O   0  0  0  0  0  0  0  0  0  0  0  0
   -0.7565   -1.2849   -0.0000 O   0  0  0  0  0  0  0  0  0  0  0  0
    1.2969   -0.7325   -0.0000 N   0  0  0  0  0  0  0  0  0  0  0  0
   -1.3089    0.7565   -0.0000 C   0  0  0  0  0  0  0  0  0  0  0  0
    2.5818    0.0240   -0.0000 C   0  0  0  0  0  0  0  0  0  0  0  0
   -2.6058    0.0360   -0.0000 C   0  0  0  0  0  0  0  0  0  0  0  0
   -1.3209    2.2936   -0.0000 C   0  0  0  0  0  0  0  0  0  0  0  0
    3.8787   -0.7205   -0.0000 C   0  0  0  0  0  0  0  0  0  0  0  0
    2.5698    1.5251   -0.0000 C   0  0  0  0  0  0  0  0  0  0  0  0
   -3.9027    0.8166   -0.0000 C   0  0  0  0  0  0  0  0  0  0  0  0
   -2.6298    3.0501   -0.0000 C   0  0  0  0  0  0  0  0  0  0  0  0
    5.1516    0.0360   -0.0000 C   0  0  0  0  0  0  0  0  0  0  0  0
    3.8667    2.2936   -0.0000 C   0  0  0  0  0  0  0  0  0  0  0  0
   -3.9147    2.3296   -0.0000 C   0  0  0  0  0  0  0  0  0  0  0  0
    5.1516    1.5491   -0.0000 C   0  0  0  0  0  0  0  0  0  0  0  0
    6.3404   -0.8886   -0.0000 C   0  0  0  0  0  0  0  0  0  0  0  0
   -5.2356    3.0981   -0.0000 C   0  0  0  0  0  0  0  0  0  0  0  0
    6.3164    2.4977   -0.0000 C   0  0  0  0  0  0  0  0  0  0  0  0
    7.7934   -0.5284   -0.0000 C   0  0  0  0  0  0  0  0  0  0  0  0
   -6.5445    2.3536   -0.0000 C   0  0  0  0  0  0  0  0  0  0  0  0
    7.7573    2.1855   -0.0000 C   0  0  0  0  0  0  0  0  0  0  0  0
    8.4058    0.8526   -0.0000 N   0  0  0  0  0  0  0  0  0  0  0  0
   -7.8534    3.1222   -0.0000 C   0  0  0  0  0  0  0  0  0  0  0  0
    9.8828    0.8646   -0.0000 C   0  0  0  0  0  0  0  0  0  0  0  0
   -9.1623    2.3896   -0.0000 C   0  0  0  0  0  0  0  0  0  0  0  0
  1  2  2  0
  1  3  2  0
  1  4  1  0
  1  5  1  0
  4  6  1  0
  5  7  2  0
  5  8  1  0
  6  9  2  0
  6 10  1  0
  7 11  1  0
  8 12  2  0
  9 13  1  0
 10 14  2  0
 11 15  2  0
 13 16  2  0
 13 17  1  0
 15 18  1  0
 16 19  1  0
 17 20  1  0
 18 21  1  0
 19 22  1  0
 20 23  1  0
 21 24  1  0
 23 25  1  0
 24 26  1  0
 12 15  1  0
 14 16  1  0
 22 23  1  0
M  END
>  <MolRegNo>  (1) 
383964

>  <m>  (1) 
=

>  <Value>  (1) 
1600

>  <Unit>  (1) 
nM

>  <Type>  (1) 
IC50

>  <pValue>  (1) 
5.8

>  <Ligand Efficiency>  (1) 
0

>  <Binding Efficiency>  (1) 
0

>  <Surface Efficiency>  (1) 
0

>  <Assay Index>  (1) 
286489

>  <Assay Category>  (1) 


>  <Assay Organism>  (1) 


>  <Target ID>  (1) 
11365

>  <Target Name>  (1) 
Cytochrome P450 2D6

>  <Target Organism>  (1) 
Homo sapiens

>  <Target Description>  (1) 
Target is a single protein chain

>  <Sequence Accession>  (1) 
P10635

>  <Reference>  (1) 
Bioorg Med Chem Lett 17 (2), 400-405 (2007)

>  <Pubmed ID>  (1) 
17084080

>  <DOI>  (1) 
10.1016/j.bmcl.2006.10.036

$$$$
