4wnv_ligand_250
     RDKit          2D

 30 33  0  0  0  0  0  0  0  0999 V2000
    0.0000   -0.0000   -0.0000 O   0  0  0  0  0  0  0  0  0  0  0  0
   -0.0119   -1.4947   -0.0000 C   0  0  0  0  0  0  0  0  0  0  0  0
   -1.3286   -2.2302   -0.0000 N   0  0  0  0  0  0  0  0  0  0  0  0
    1.2812   -2.2302   -0.0000 C   0  0  0  0  0  0  0  0  0  0  0  0
   -1.3405   -3.7250   -0.0000 C   0  0  0  0  0  0  0  0  0  0  0  0
   -2.6336   -1.4710   -0.0000 C   0  0  0  0  0  0  0  0  0  0  0  0
    2.5624   -1.4591   -0.0000 C   0  0  0  0  0  0  0  0  0  0  0  0
   -2.6454   -4.4605   -0.0000 C   0  0  0  0  0  0  0  0  0  0  0  0
   -3.9504   -2.2065   -0.0000 C   0  0  0  0  0  0  0  0  0  0  0  0
    3.8554   -2.1828   -0.0000 O   0  0  0  0  0  0  0  0  0  0  0  0
   -3.9622   -3.7012   -0.0000 C   0  0  0  0  0  0  0  0  0  0  0  0
    5.1366   -1.4117   -0.0000 C   0  0  0  0  0  0  0  0  0  0  0  0
   -5.2790   -4.4367   -0.0000 C   0  0  0  0  0  0  0  0  0  0  0  0
    6.4416   -2.1472   -0.0000 C   0  0  0  0  0  0  0  0  0  0  0  0
    5.1129    0.0949   -0.0000 C   0  0  0  0  0  0  0  0  0  0  0  0
   -6.5839   -3.6775   -0.0000 C   0  0  0  0  0  0  0  0  0  0  0  0
    7.7228   -1.3761   -0.0000 C   0  0  0  0  0  0  0  0  0  0  0  0
    6.3941    0.8779   -0.0000 C   0  0  0  0  0  0  0  0  0  0  0  0
   -7.9719   -4.2825   -0.0000 N   0  0  0  0  0  0  0  0  0  0  0  0
   -6.7619   -2.1709   -0.0000 C   0  0  0  0  0  0  0  0  0  0  0  0
    7.6872    0.1424   -0.0000 C   0  0  0  0  0  0  0  0  0  0  0  0
   -8.9921   -3.1437   -0.0000 C   0  0  0  0  0  0  0  0  0  0  0  0
   -8.2447   -1.8506   -0.0000 N   0  0  0  0  0  0  0  0  0  0  0  0
    8.9684    0.9134   -0.0000 C   0  0  0  0  0  0  0  0  0  0  0  0
   10.2614    0.1898   -0.0000 N   0  0  0  0  0  0  0  0  0  0  0  0
   10.2614   -1.3049   -0.0000 C   0  0  0  0  0  0  0  0  0  0  0  0
   11.5426    0.9609   -0.0000 C   0  0  0  0  0  0  0  0  0  0  0  0
   11.5545   -2.0286   -0.0000 C   0  0  0  0  0  0  0  0  0  0  0  0
   12.8357    0.2254   -0.0000 C   0  0  0  0  0  0  0  0  0  0  0  0
   12.8357   -1.2575   -0.0000 C   0  0  0  0  0  0  0  0  0  0  0  0
  1  2  2  0
  2  3  1  0
  2  4  1  0
  3  5  1  0
  3  6  1  0
  4  7  1  0
  5  8  1  0
  6  9  1  0
  7 10  1  0
  8 11  1  0
 10 12  1  0
 11 13  1  0
 12 14  2  0
 12 15  1  0
 13 16  1  0
 14 17  1  0
 15 18  2  0
 16 19  1  0
 16 20  2  0
 17 21  2  0
 19 22  2  0
 20 23  1  0
 21 24  1  0
 24 25  1  0
 25 26  1  0
 25 27  1  0
 26 28  1  0
 27 29  1  0
 28 30  1  0
  9 11  1  0
 18 21  1  0
 22 23  1  0
 29 30  1  0
M  END
>  <MolRegNo>  (1) 
339444

>  <m>  (1) 
=

>  <Value>  (1) 
1000

>  <Unit>  (1) 
nM

>  <Type>  (1) 
IC50

>  <pValue>  (1) 
6

>  <Ligand Efficiency>  (1) 
0

>  <Binding Efficiency>  (1) 
0

>  <Surface Efficiency>  (1) 
0

>  <Assay Index>  (1) 
257619

>  <Assay Category>  (1) 


>  <Assay Organism>  (1) 
Homo sapiens

>  <Target ID>  (1) 
11365

>  <Target Name>  (1) 
Cytochrome P450 2D6

>  <Target Organism>  (1) 
Homo sapiens

>  <Target Description>  (1) 
Target is a single protein chain

>  <Sequence Accession>  (1) 
P10635

>  <Reference>  (1) 
Bioorg Med Chem Lett 16 (4), 989-994 (2006)

>  <Pubmed ID>  (1) 
16297617

>  <DOI>  (1) 
10.1016/j.bmcl.2005.10.087

$$$$
