4wnv_ligand_411
     RDKit          2D

 27 29  0  0  0  0  0  0  0  0999 V2000
    0.0000   -0.0000   -0.0000 Cl  0  0  0  0  0  0  0  0  0  0  0  0
   -2.8967   -4.5381   -0.0000 S   0  0  0  0  0  0  0  0  0  0  0  0
   -4.4295   -4.7312   -0.0000 C   0  0  0  0  0  0  0  0  0  0  0  0
   -2.6311   -3.0174   -0.0000 C   0  0  0  0  0  0  0  0  0  0  0  0
   -5.0813   -3.3432   -0.0000 C   0  0  0  0  0  0  0  0  0  0  0  0
   -3.9950   -2.2691   -0.0000 C   0  0  0  0  0  0  0  0  0  0  0  0
   -6.6020   -3.0536   -0.0000 C   0  0  0  0  0  0  0  0  0  0  0  0
   -7.6038   -4.2122   -0.0000 N   0  0  0  0  0  0  0  0  0  0  0  0
   -7.1331   -1.5932   -0.0000 C   0  0  0  0  0  0  0  0  0  0  0  0
   -9.1245   -3.9226   -0.0000 C   0  0  0  0  0  0  0  0  0  0  0  0
   -8.6538   -1.3035   -0.0000 C   0  0  0  0  0  0  0  0  0  0  0  0
   -9.6556   -2.4622   -0.0000 N   0  0  0  0  0  0  0  0  0  0  0  0
   -9.2814    0.1086   -0.0000 N   0  0  0  0  0  0  0  0  0  0  0  0
   -8.5211    1.4483   -0.0000 C   0  0  0  0  0  0  0  0  0  0  0  0
  -10.7901    0.4466   -0.0000 C   0  0  0  0  0  0  0  0  0  0  0  0
   -9.5590    2.6070   -0.0000 C   0  0  0  0  0  0  0  0  0  0  0  0
  -10.9349    1.9673   -0.0000 C   0  0  0  0  0  0  0  0  0  0  0  0
   -9.3176    3.8140   -0.0000 N   0  0  0  0  0  0  0  0  0  0  0  0
  -12.2747    2.7518   -0.0000 C   0  0  0  0  0  0  0  0  0  0  0  0
  -12.2867    4.2967   -0.0000 C   0  0  0  0  0  0  0  0  0  0  0  0
  -13.6144    1.9915   -0.0000 C   0  0  0  0  0  0  0  0  0  0  0  0
  -11.2367    4.9243   -0.0000 F   0  0  0  0  0  0  0  0  0  0  0  0
  -13.6264    5.0692   -0.0000 C   0  0  0  0  0  0  0  0  0  0  0  0
  -14.9541    2.7639   -0.0000 C   0  0  0  0  0  0  0  0  0  0  0  0
  -14.9662    4.3088   -0.0000 C   0  0  0  0  0  0  0  0  0  0  0  0
  -16.0283    2.1604   -0.0000 F   0  0  0  0  0  0  0  0  0  0  0  0
  -16.0403    4.9364   -0.0000 F   0  0  0  0  0  0  0  0  0  0  0  0
  2  3  1  0
  2  4  1  0
  3  5  2  0
  4  6  2  0
  5  7  1  0
  7  8  2  0
  7  9  1  0
  8 10  1  0
  9 11  2  0
 10 12  2  0
 11 13  1  0
 13 14  1  0
 13 15  1  0
 14 16  1  0
 15 17  1  0
 16 18  1  0
 17 19  1  0
 19 20  2  0
 19 21  1  0
 20 22  1  0
 20 23  1  0
 21 24  2  0
 23 25  2  0
 24 26  1  0
 25 27  1  0
  5  6  1  0
 11 12  1  0
 16 17  1  0
 24 25  1  0
M  END
>  <MolRegNo>  (1) 
549903

>  <m>  (1) 
=

>  <Value>  (1) 
1100

>  <Unit>  (1) 
nM

>  <Type>  (1) 
IC50

>  <pValue>  (1) 
5.96

>  <Ligand Efficiency>  (1) 
0

>  <Binding Efficiency>  (1) 
0

>  <Surface Efficiency>  (1) 
0

>  <Assay Index>  (1) 
303259

>  <Assay Category>  (1) 


>  <Assay Organism>  (1) 


>  <Target ID>  (1) 
11365

>  <Target Name>  (1) 
Cytochrome P450 2D6

>  <Target Organism>  (1) 
Homo sapiens

>  <Target Description>  (1) 
Target is a single protein chain

>  <Sequence Accession>  (1) 
P10635

>  <Reference>  (1) 
Bioorg Med Chem Lett 17 (7), 2005-2012 (2007)

>  <Pubmed ID>  (1) 
17276063

>  <DOI>  (1) 
10.1016/j.bmcl.2007.01.026

$$$$
