4wnv_ligand_559
     RDKit          2D

 22 24  0  0  0  0  0  0  0  0999 V2000
    0.0000   -0.0000   -0.0000 O   0  0  0  0  0  0  0  0  0  0  0  0
   -0.0118    1.5099   -0.0000 C   0  0  0  0  0  0  0  0  0  0  0  0
   -1.3094   -0.7314   -0.0000 C   0  0  0  0  0  0  0  0  0  0  0  0
   -1.3212    2.2767   -0.0000 C   0  0  0  0  0  0  0  0  0  0  0  0
    1.2740    2.2649   -0.0000 C   0  0  0  0  0  0  0  0  0  0  0  0
   -2.6070    0.0236   -0.0000 C   0  0  0  0  0  0  0  0  0  0  0  0
   -1.3330    3.7748   -0.0000 O   0  0  0  0  0  0  0  0  0  0  0  0
   -2.6188    1.5335   -0.0000 C   0  0  0  0  0  0  0  0  0  0  0  0
    2.5480    1.5335   -0.0000 N   0  0  0  0  0  0  0  0  0  0  0  0
   -3.9046   -0.7196   -0.0000 C   0  0  0  0  0  0  0  0  0  0  0  0
   -2.3947    4.8483   -0.0000 C   0  0  0  0  0  0  0  0  0  0  0  0
   -3.9282    2.2885   -0.0000 C   0  0  0  0  0  0  0  0  0  0  0  0
    3.8338    2.2885   -0.0000 C   0  0  0  0  0  0  0  0  0  0  0  0
   -5.2140    0.0354   -0.0000 C   0  0  0  0  0  0  0  0  0  0  0  0
   -3.8338    4.4708   -0.0000 C   0  0  0  0  0  0  0  0  0  0  0  0
   -2.0172    6.2992   -0.0000 C   0  0  0  0  0  0  0  0  0  0  0  0
   -5.2258    1.5571   -0.0000 C   0  0  0  0  0  0  0  0  0  0  0  0
   -4.8955    5.5325   -0.0000 C   0  0  0  0  0  0  0  0  0  0  0  0
   -4.2231    3.0434   -0.0000 C   0  0  0  0  0  0  0  0  0  0  0  0
   -3.0788    7.3727   -0.0000 C   0  0  0  0  0  0  0  0  0  0  0  0
   -4.5180    6.9952   -0.0000 C   0  0  0  0  0  0  0  0  0  0  0  0
   -5.5797    8.0569   -0.0000 O   0  0  0  0  0  0  0  0  0  0  0  0
  1  2  1  0
  1  3  1  0
  2  4  1  0
  2  5  1  1
  3  6  1  0
  4  7  1  1
  4  8  1  0
  5  9  1  0
  6 10  2  0
  7 11  1  0
  8 12  2  0
  9 13  1  0
 10 14  1  0
 11 15  2  0
 11 16  1  0
 12 17  1  0
 15 18  1  0
 15 19  1  0
 16 20  2  0
 18 21  2  0
 21 22  1  0
  6  8  1  0
 14 17  2  0
 20 21  1  0
M  END
>  <MolRegNo>  (1) 
511428

>  <m>  (1) 
=

>  <Value>  (1) 
9000

>  <Unit>  (1) 
nM

>  <Type>  (1) 
IC50

>  <pValue>  (1) 
5.05

>  <Ligand Efficiency>  (1) 
0

>  <Binding Efficiency>  (1) 
0

>  <Surface Efficiency>  (1) 
0

>  <Assay Index>  (1) 
358939

>  <Assay Category>  (1) 


>  <Assay Organism>  (1) 


>  <Target ID>  (1) 
11365

>  <Target Name>  (1) 
Cytochrome P450 2D6

>  <Target Organism>  (1) 
Homo sapiens

>  <Target Description>  (1) 
Target is a single protein chain

>  <Sequence Accession>  (1) 
P10635

>  <Reference>  (1) 
Bioorg Med Chem Lett 18 (16), 4491-4494 (2008)

>  <Pubmed ID>  (1) 
18672364

>  <DOI>  (1) 
10.1016/j.bmcl.2008.07.049

$$$$
