4wnv_ligand_830
     RDKit          2D

 23 25  0  0  0  0  0  0  0  0999 V2000
    0.0000   -0.0000   -0.0000 F   0  0  0  0  0  0  0  0  0  0  0  0
   -1.3154   -0.7466   -0.0000 C   0  0  0  0  0  0  0  0  0  0  0  0
   -2.6307    0.0237   -0.0000 F   0  0  0  0  0  0  0  0  0  0  0  0
   -1.3272    0.7703   -0.0000 F   0  0  0  0  0  0  0  0  0  0  0  0
   -1.3272   -2.2397   -0.0000 C   0  0  0  0  0  0  0  0  0  0  0  0
   -0.0356   -2.9744   -0.0000 C   0  0  0  0  0  0  0  0  0  0  0  0
   -2.6426   -2.9744   -0.0000 C   0  0  0  0  0  0  0  0  0  0  0  0
    1.2561   -2.2160   -0.0000 C   0  0  0  0  0  0  0  0  0  0  0  0
   -0.0474   -4.4675   -0.0000 C   0  0  0  0  0  0  0  0  0  0  0  0
   -2.6544   -4.4675   -0.0000 C   0  0  0  0  0  0  0  0  0  0  0  0
    1.2443   -0.6992   -0.0000 O   0  0  0  0  0  0  0  0  0  0  0  0
    2.5478   -2.9507   -0.0000 N   0  0  0  0  0  0  0  0  0  0  0  0
   -1.3628   -5.2022   -0.0000 C   0  0  0  0  0  0  0  0  0  0  0  0
    2.5359   -4.4438   -0.0000 C   0  0  0  0  0  0  0  0  0  0  0  0
    3.8394   -2.1923   -0.0000 C   0  0  0  0  0  0  0  0  0  0  0  0
    3.7446   -5.3207   -0.0000 C   0  0  0  0  0  0  0  0  0  0  0  0
    1.3035   -5.3207   -0.0000 C   0  0  0  0  0  0  0  0  0  0  0  0
    5.1311   -2.9270   -0.0000 C   0  0  0  0  0  0  0  0  0  0  0  0
    3.2706   -6.7427   -0.0000 N   0  0  0  0  0  0  0  0  0  0  0  0
    1.7538   -6.7427   -0.0000 C   0  0  0  0  0  0  0  0  0  0  0  0
    5.5103   -4.3727   -0.0000 C   0  0  0  0  0  0  0  0  0  0  0  0
    6.5768   -2.5241   -0.0000 C   0  0  0  0  0  0  0  0  0  0  0  0
    6.9560   -3.9698   -0.0000 C   0  0  0  0  0  0  0  0  0  0  0  0
  1  2  1  0
  2  3  1  0
  2  4  1  0
  2  5  1  0
  5  6  2  0
  5  7  1  0
  6  8  1  0
  6  9  1  0
  7 10  2  0
  8 11  2  0
  8 12  1  0
  9 13  2  0
 14 12  1  6
 12 15  1  0
 14 16  1  0
 14 17  1  0
 15 18  1  0
 16 19  1  0
 17 20  1  0
 18 21  1  0
 18 22  1  0
 21 23  1  0
 10 13  1  0
 19 20  1  0
 22 23  1  0
M  END
>  <MolRegNo>  (1) 
564274

>  <m>  (1) 
=

>  <Value>  (1) 
15100

>  <Unit>  (1) 
nM

>  <Type>  (1) 
IC50

>  <pValue>  (1) 
4.82

>  <Ligand Efficiency>  (1) 
0

>  <Binding Efficiency>  (1) 
0

>  <Surface Efficiency>  (1) 
0

>  <Assay Index>  (1) 
427125

>  <Assay Category>  (1) 


>  <Assay Organism>  (1) 


>  <Target ID>  (1) 
11365

>  <Target Name>  (1) 
Cytochrome P450 2D6

>  <Target Organism>  (1) 
Homo sapiens

>  <Target Description>  (1) 
Target is a single protein chain

>  <Sequence Accession>  (1) 
P10635

>  <Reference>  (1) 
Bioorg Med Chem Lett 19 (16), 4579-4583 (2009)

>  <Pubmed ID>  (1) 
19616432

>  <DOI>  (1) 
10.1016/j.bmcl.2009.06.096

$$$$
