4wnv_ligand_599
     RDKit          2D

 40 43  0  0  0  0  0  0  0  0999 V2000
    0.0000   -0.0000   -0.0000 O   0  0  0  0  0  0  0  0  0  0  0  0
   -0.0119    1.5053   -0.0000 C   0  0  0  0  0  0  0  0  0  0  0  0
    1.2801    2.2757   -0.0000 C   0  0  0  0  0  0  0  0  0  0  0  0
   -1.3275    2.2639   -0.0000 C   0  0  0  0  0  0  0  0  0  0  0  0
    2.5720    1.5409   -0.0000 O   0  0  0  0  0  0  0  0  0  0  0  0
    1.2564    3.7929   -0.0000 C   0  0  0  0  0  0  0  0  0  0  0  0
   -1.3512    3.7810   -0.0000 C   0  0  0  0  0  0  0  0  0  0  0  0
   -2.6432    1.5171   -0.0000 C   0  0  0  0  0  0  0  0  0  0  0  0
    2.5602    0.0593   -0.0000 C   0  0  0  0  0  0  0  0  0  0  0  0
   -0.0593    4.5514   -0.0000 O   0  0  0  0  0  0  0  0  0  0  0  0
    2.5365    4.5514   -0.0000 C   0  0  0  0  0  0  0  0  0  0  0  0
   -2.6669    4.5396   -0.0000 C   0  0  0  0  0  0  0  0  0  0  0  0
   -2.6550    0.0356   -0.0000 O   0  0  0  0  0  0  0  0  0  0  0  0
   -3.9588    2.2757   -0.0000 C   0  0  0  0  0  0  0  0  0  0  0  0
    1.2445   -0.6756   -0.0000 O   0  0  0  0  0  0  0  0  0  0  0  0
    3.8403   -0.6638   -0.0000 C   0  0  0  0  0  0  0  0  0  0  0  0
    3.8284    3.8166   -0.0000 C   0  0  0  0  0  0  0  0  0  0  0  0
    2.5128    6.0567   -0.0000 C   0  0  0  0  0  0  0  0  0  0  0  0
   -3.9707    3.8047   -0.0000 C   0  0  0  0  0  0  0  0  0  0  0  0
    1.2327   -2.1572   -0.0000 C   0  0  0  0  0  0  0  0  0  0  0  0
    5.1204    0.1067   -0.0000 O   0  0  0  0  0  0  0  0  0  0  0  0
    3.8284   -2.1572   -0.0000 C   0  0  0  0  0  0  0  0  0  0  0  0
    5.1085    4.5752   -0.0000 C   0  0  0  0  0  0  0  0  0  0  0  0
    3.7929    6.8272   -0.0000 C   0  0  0  0  0  0  0  0  0  0  0  0
   -5.2863    4.5633   -0.0000 O   0  0  0  0  0  0  0  0  0  0  0  0
    2.5128   -2.9039   -0.0000 C   0  0  0  0  0  0  0  0  0  0  0  0
   -0.0830   -2.8921   -0.0000 C   0  0  0  0  0  0  0  0  0  0  0  0
    5.1085    1.6120   -0.0000 C   0  0  0  0  0  0  0  0  0  0  0  0
    5.1085   -2.8921   -0.0000 O   0  0  0  0  0  0  0  0  0  0  0  0
    5.0967    6.0923   -0.0000 C   0  0  0  0  0  0  0  0  0  0  0  0
    2.5009   -4.3855   -0.0000 O   0  0  0  0  0  0  0  0  0  0  0  0
    3.7929    2.3705   -0.0000 O   0  0  0  0  0  0  0  0  0  0  0  0
    6.3886    2.3824   -0.0000 C   0  0  0  0  0  0  0  0  0  0  0  0
    6.4005   -2.1335   -0.0000 C   0  0  0  0  0  0  0  0  0  0  0  0
    6.3768    6.8627   -0.0000 O   0  0  0  0  0  0  0  0  0  0  0  0
    1.1853   -5.1204   -0.0000 C   0  0  0  0  0  0  0  0  0  0  0  0
    6.3886   -0.6282   -0.0000 O   0  0  0  0  0  0  0  0  0  0  0  0
    7.6806   -2.8684   -0.0000 C   0  0  0  0  0  0  0  0  0  0  0  0
    1.1734   -6.6020   -0.0000 O   0  0  0  0  0  0  0  0  0  0  0  0
   -0.1185   -4.3618   -0.0000 C   0  0  0  0  0  0  0  0  0  0  0  0
  1  2  2  0
  2  3  1  0
  2  4  1  0
  3  5  1  0
  3  6  2  0
  4  7  2  0
  4  8  1  0
  9  5  1  6
  6 10  1  0
  6 11  1  0
  7 12  1  0
  8 13  1  0
  8 14  2  0
  9 15  1  0
  9 16  1  0
 11 17  2  0
 11 18  1  0
 12 19  2  0
 15 20  1  0
 16 21  1  1
 16 22  1  0
 17 23  1  0
 18 24  2  0
 19 25  1  0
 20 26  1  0
 20 27  1  1
 21 28  1  0
 22 29  1  1
 23 30  2  0
 26 31  1  6
 28 32  2  0
 28 33  1  0
 29 34  1  0
 30 35  1  0
 31 36  1  0
 34 37  2  0
 34 38  1  0
 36 39  2  0
 36 40  1  0
  7 10  1  0
 14 19  1  0
 22 26  1  0
 24 30  1  0
M  END
>  <MolRegNo>  (1) 
444666

>  <m>  (1) 
=

>  <Value>  (1) 
43300

>  <Unit>  (1) 
nM

>  <Type>  (1) 
IC50

>  <pValue>  (1) 
4.36

>  <Ligand Efficiency>  (1) 
0

>  <Binding Efficiency>  (1) 
0

>  <Surface Efficiency>  (1) 
0

>  <Assay Index>  (1) 
399811

>  <Assay Category>  (1) 


>  <Assay Organism>  (1) 
Homo sapiens

>  <Target ID>  (1) 
11365

>  <Target Name>  (1) 
Cytochrome P450 2D6

>  <Target Organism>  (1) 
Homo sapiens

>  <Target Description>  (1) 
Target is a single protein chain

>  <Sequence Accession>  (1) 
P10635

>  <Reference>  (1) 
J Nat Prod 67 (7), 1079-1083 (2004)

>  <Pubmed ID>  (1) 
15270556

>  <DOI>  (1) 
10.1021/np030556a

$$$$
