4wnv_ligand_274
     RDKit          2D

 21 24  0  0  0  0  0  0  0  0999 V2000
    0.0000   -0.0000   -0.0000 N   0  0  0  0  0  0  0  0  0  0  0  0
    0.0947   -1.4912   -0.0000 C   0  0  0  0  0  0  0  0  0  0  0  0
    1.2308    0.8639   -0.0000 C   0  0  0  0  0  0  0  0  0  0  0  0
    1.4438   -2.1421   -0.0000 C   0  0  0  0  0  0  0  0  0  0  0  0
   -1.2782   -2.1066   -0.0000 C   0  0  0  0  0  0  0  0  0  0  0  0
    2.5918    0.2130   -0.0000 C   0  0  0  0  0  0  0  0  0  0  0  0
    2.6865   -1.2900   -0.0000 C   0  0  0  0  0  0  0  0  0  0  0  0
    1.7634   -3.5978   -0.0000 C   0  0  0  0  0  0  0  0  0  0  0  0
   -1.6450   -3.5623   -0.0000 C   0  0  0  0  0  0  0  0  0  0  0  0
    3.2191   -3.9410   -0.0000 N   0  0  0  0  0  0  0  0  0  0  0  0
    0.7929   -4.7457   -0.0000 C   0  0  0  0  0  0  0  0  0  0  0  0
   -0.7219   -4.7457   -0.0000 C   0  0  0  0  0  0  0  0  0  0  0  0
    3.7753   -5.3138   -0.0000 C   0  0  0  0  0  0  0  0  0  0  0  0
    4.3434   -2.9469   -0.0000 C   0  0  0  0  0  0  0  0  0  0  0  0
    1.5267   -6.0357   -0.0000 C   0  0  0  0  0  0  0  0  0  0  0  0
   -1.4912   -6.0357   -0.0000 C   0  0  0  0  0  0  0  0  0  0  0  0
    5.2665   -5.1836   -0.0000 C   0  0  0  0  0  0  0  0  0  0  0  0
    5.6215   -3.7161   -0.0000 C   0  0  0  0  0  0  0  0  0  0  0  0
    0.7574   -7.3257   -0.0000 C   0  0  0  0  0  0  0  0  0  0  0  0
   -0.7574   -7.3376   -0.0000 C   0  0  0  0  0  0  0  0  0  0  0  0
    1.4912   -8.6276   -0.0000 C   0  0  0  0  0  0  0  0  0  0  0  0
  1  2  2  0
  1  3  1  0
  2  4  1  0
  2  5  1  0
  3  6  2  0
  4  7  2  0
  4  8  1  0
  5  9  1  0
  8 10  1  0
  8 11  1  0
  9 12  1  0
 10 13  1  0
 10 14  1  0
 11 15  2  0
 12 16  2  0
 13 17  2  0
 14 18  2  0
 15 19  1  0
 16 20  1  0
 19 21  1  0
  6  7  1  0
 11 12  1  0
 17 18  1  0
 19 20  2  0
M  END
>  <MolRegNo>  (1) 
342953

>  <m>  (1) 
=

>  <Value>  (1) 
40000

>  <Unit>  (1) 
nM

>  <Type>  (1) 
IC50

>  <pValue>  (1) 
4.4

>  <Ligand Efficiency>  (1) 
0

>  <Binding Efficiency>  (1) 
0

>  <Surface Efficiency>  (1) 
0

>  <Assay Index>  (1) 
259863

>  <Assay Category>  (1) 


>  <Assay Organism>  (1) 
Homo sapiens

>  <Target ID>  (1) 
11365

>  <Target Name>  (1) 
Cytochrome P450 2D6

>  <Target Organism>  (1) 
Homo sapiens

>  <Target Description>  (1) 
Target is a single protein chain

>  <Sequence Accession>  (1) 
P10635

>  <Reference>  (1) 
J Med Chem 49 (8), 2417-2430 (2006)

>  <Pubmed ID>  (1) 
16610785

>  <DOI>  (1) 
10.1021/jm0508538

$$$$
