4wnv_ligand_3
     RDKit          2D

 25 25  0  0  1  0  0  0  0  0999 V2000
    0.0000   -0.0000   -0.0000 S   0  0  0  0  0  0  0  0  0  0  0  0
   -0.0361    1.5166   -0.0000 O   0  0  0  0  0  0  0  0  0  0  0  0
   -1.3000   -0.7704   -0.0000 O   0  0  0  0  0  0  0  0  0  0  0  0
    1.3240   -0.7102   -0.0000 N   0  0  0  0  0  0  0  0  0  0  0  0
   -1.3240    0.7824   -0.0000 C   0  0  0  0  0  0  0  0  0  0  0  0
    2.5759    0.0602   -0.0000 C   0  0  0  0  0  0  0  0  0  0  0  0
   -2.6601    0.0481   -0.0000 C   0  0  0  0  0  0  0  0  0  0  0  0
   -1.3240    2.3111   -0.0000 C   0  0  0  0  0  0  0  0  0  0  0  0
    3.8638   -0.6259   -0.0000 C   0  0  0  0  0  0  0  0  0  0  0  0
    2.5398    1.5527   -0.0000 C   0  0  0  0  0  0  0  0  0  0  0  0
   -3.9962    0.8305   -0.0000 C   0  0  0  0  0  0  0  0  0  0  0  0
   -2.6481    3.0814   -0.0000 C   0  0  0  0  0  0  0  0  0  0  0  0
    3.8999   -2.1426   -0.0000 O   0  0  0  0  0  0  0  0  0  0  0  0
    5.1758    0.1324   -0.0000 N   0  0  0  0  0  0  0  0  0  0  0  0
    1.2278    2.2870   -0.0000 C   0  0  0  0  0  0  0  0  0  0  0  0
    3.8036    2.3351   -0.0000 C   0  0  0  0  0  0  0  0  0  0  0  0
   -3.9962    2.3592   -0.0000 C   0  0  0  0  0  0  0  0  0  0  0  0
    6.4397   -0.6018   -0.0000 C   0  0  0  0  0  0  0  0  0  0  0  0
   -5.2842    3.1175   -0.0000 F   0  0  0  0  0  0  0  0  0  0  0  0
    7.7036    0.1565   -0.0000 C   0  0  0  0  0  0  0  0  0  0  0  0
    6.4277   -2.0703   -0.0000 C   0  0  0  0  0  0  0  0  0  0  0  0
    7.6915    1.6490   -0.0000 O   0  0  0  0  0  0  0  0  0  0  0  0
    7.6915   -2.8046   -0.0000 C   0  0  0  0  0  0  0  0  0  0  0  0
    8.9554   -2.0463   -0.0000 C   0  0  0  0  0  0  0  0  0  0  0  0
    7.6795   -4.2731   -0.0000 C   0  0  0  0  0  0  0  0  0  0  0  0
  1  2  2  0
  1  3  2  0
  1  4  1  0
  1  5  1  0
  6  4  1  1
  5  7  2  0
  5  8  1  0
  6  9  1  0
  6 10  1  0
  7 11  1  0
  8 12  2  0
  9 13  2  0
  9 14  1  0
 10 15  1  0
 10 16  1  0
 11 17  2  0
 18 14  1  0
 17 19  1  0
 18 20  1  0
 18 21  1  1
 20 22  2  0
 21 23  1  0
 23 24  1  0
 23 25  1  0
 12 17  1  0
M  END
>  <MolRegNo>  (1) 
282942

>  <m>  (1) 
=

>  <Value>  (1) 
291000

>  <Unit>  (1) 
nM

>  <Type>  (1) 
IC50

>  <pValue>  (1) 
0

>  <Ligand Efficiency>  (1) 
0

>  <Binding Efficiency>  (1) 
0

>  <Surface Efficiency>  (1) 
0

>  <Assay Index>  (1) 
51654

>  <Assay Category>  (1) 


>  <Assay Organism>  (1) 


>  <Target ID>  (1) 
11365

>  <Target Name>  (1) 
Cytochrome P450 2D6

>  <Target Organism>  (1) 
Homo sapiens

>  <Target Description>  (1) 
Target is a single protein chain

>  <Sequence Accession>  (1) 
P10635

>  <Reference>  (1) 
J Med Chem 46 (5), 868-871 (2003)

>  <Pubmed ID>  (1) 
12593666

>  <DOI>  (1) 
10.1021/jm0201924

$$$$
