4wnv_ligand_196
     RDKit          2D

 55 58  0  0  0  0  0  0  0  0999 V2000
    0.0000   -0.0000   -0.0000 S   0  0  0  0  0  0  0  0  0  0  0  0
    0.7576    1.3564   -0.0000 O   0  0  0  0  0  0  0  0  0  0  0  0
   -0.8065    1.3564   -0.0000 O   0  0  0  0  0  0  0  0  0  0  0  0
   -1.3564   -0.7698   -0.0000 O   0  0  0  0  0  0  0  0  0  0  0  0
    1.3319   -0.7698   -0.0000 O   0  0  0  0  0  0  0  0  0  0  0  0
   -6.3542    3.0304   -0.0000 O   0  0  0  0  0  0  0  0  0  0  0  0
   -7.7105    3.8125   -0.0000 C   0  0  0  0  0  0  0  0  0  0  0  0
   -6.3664    1.4908   -0.0000 C   0  0  0  0  0  0  0  0  0  0  0  0
   -7.7227    5.3766   -0.0000 C   0  0  0  0  0  0  0  0  0  0  0  0
   -9.0669    3.0549   -0.0000 C   0  0  0  0  0  0  0  0  0  0  0  0
   -9.0791    6.1586   -0.0000 C   0  0  0  0  0  0  0  0  0  0  0  0
  -10.4233    3.8369   -0.0000 C   0  0  0  0  0  0  0  0  0  0  0  0
  -10.4355    5.4010   -0.0000 C   0  0  0  0  0  0  0  0  0  0  0  0
   -9.0913    7.7227   -0.0000 C   0  0  0  0  0  0  0  0  0  0  0  0
  -11.7918    6.1831   -0.0000 N   0  0  0  0  0  0  0  0  0  0  0  0
  -10.4477    8.5048   -0.0000 C   0  0  0  0  0  0  0  0  0  0  0  0
   -7.7594    8.5048   -0.0000 C   0  0  0  0  0  0  0  0  0  0  0  0
  -11.8041    7.7472   -0.0000 C   0  0  0  0  0  0  0  0  0  0  0  0
   -7.7716   10.0689   -0.0000 O   0  0  0  0  0  0  0  0  0  0  0  0
   -6.4275    7.7472   -0.0000 C   0  0  0  0  0  0  0  0  0  0  0  0
   -5.0955    8.5292   -0.0000 N   0  0  0  0  0  0  0  0  0  0  0  0
   -6.4397    6.2075   -0.0000 C   0  0  0  0  0  0  0  0  0  0  0  0
   -3.7636    7.7716   -0.0000 C   0  0  0  0  0  0  0  0  0  0  0  0
   -5.3644    7.5028   -0.0000 C   0  0  0  0  0  0  0  0  0  0  0  0
   -5.1078    5.4499   -0.0000 C   0  0  0  0  0  0  0  0  0  0  0  0
   -3.7758    6.2320   -0.0000 C   0  0  0  0  0  0  0  0  0  0  0  0
   -5.3766    6.4763   -0.0000 C   0  0  0  0  0  0  0  0  0  0  0  0
   -2.4439    5.4743   -0.0000 C   0  0  0  0  0  0  0  0  0  0  0  0
   -1.1120    6.2564   -0.0000 C   0  0  0  0  0  0  0  0  0  0  0  0
    9.2868    2.4439   -0.0000 O   0  0  0  0  0  0  0  0  0  0  0  0
    7.9305    3.2260   -0.0000 C   0  0  0  0  0  0  0  0  0  0  0  0
    9.2746    0.9042   -0.0000 C   0  0  0  0  0  0  0  0  0  0  0  0
    7.9183    4.7901   -0.0000 C   0  0  0  0  0  0  0  0  0  0  0  0
    6.5741    2.4683   -0.0000 C   0  0  0  0  0  0  0  0  0  0  0  0
    6.5619    5.5721   -0.0000 C   0  0  0  0  0  0  0  0  0  0  0  0
    5.2177    3.2504   -0.0000 C   0  0  0  0  0  0  0  0  0  0  0  0
    5.2055    4.8145   -0.0000 C   0  0  0  0  0  0  0  0  0  0  0  0
    6.5497    7.1362   -0.0000 C   0  0  0  0  0  0  0  0  0  0  0  0
    3.8492    5.5965   -0.0000 N   0  0  0  0  0  0  0  0  0  0  0  0
    5.1933    7.9183   -0.0000 C   0  0  0  0  0  0  0  0  0  0  0  0
    7.8816    7.9183   -0.0000 C   0  0  0  0  0  0  0  0  0  0  0  0
    3.8369    7.1606   -0.0000 C   0  0  0  0  0  0  0  0  0  0  0  0
    7.8694    9.4824   -0.0000 O   0  0  0  0  0  0  0  0  0  0  0  0
    9.2135    7.1606   -0.0000 C   0  0  0  0  0  0  0  0  0  0  0  0
   10.5455    7.9427   -0.0000 N   0  0  0  0  0  0  0  0  0  0  0  0
    9.2013    5.6210   -0.0000 C   0  0  0  0  0  0  0  0  0  0  0  0
   11.8774    7.1851   -0.0000 C   0  0  0  0  0  0  0  0  0  0  0  0
   10.2766    6.9163   -0.0000 C   0  0  0  0  0  0  0  0  0  0  0  0
   10.5332    4.8634   -0.0000 C   0  0  0  0  0  0  0  0  0  0  0  0
   11.8652    5.6454   -0.0000 C   0  0  0  0  0  0  0  0  0  0  0  0
   10.2644    5.8898   -0.0000 C   0  0  0  0  0  0  0  0  0  0  0  0
   13.1971    4.8878   -0.0000 C   0  0  0  0  0  0  0  0  0  0  0  0
   14.5290    5.6699   -0.0000 C   0  0  0  0  0  0  0  0  0  0  0  0
   -0.7820   -4.5945   -0.0000 O   0  0  0  0  0  0  0  0  0  0  0  0
    2.3461   -4.3990   -0.0000 O   0  0  0  0  0  0  0  0  0  0  0  0
  1  2  2  0
  1  3  2  0
  1  4  1  0
  1  5  1  0
  6  7  1  0
  6  8  1  0
  7  9  2  0
  7 10  1  0
  9 11  1  0
 10 12  2  0
 11 13  2  0
 11 14  1  0
 13 15  1  0
 14 16  2  0
 14 17  1  0
 15 18  2  0
 17 19  1  6
 17 20  1  0
 20 21  1  0
 20 22  1  6
 21 23  1  0
 21 24  1  0
 25 22  1  0
 23 26  1  0
 24 27  1  0
 26 28  1  6
 28 29  2  0
 30 31  1  0
 30 32  1  0
 31 33  2  0
 31 34  1  0
 33 35  1  0
 34 36  2  0
 35 37  2  0
 35 38  1  0
 37 39  1  0
 38 40  2  0
 38 41  1  0
 39 42  2  0
 41 43  1  6
 41 44  1  0
 44 45  1  0
 44 46  1  6
 45 47  1  0
 45 48  1  0
 49 46  1  6
 47 50  1  0
 48 51  1  0
 50 52  1  6
 52 53  2  0
 12 13  1  0
 16 18  1  0
 25 26  1  0
 25 27  1  1
 36 37  1  0
 40 42  1  0
 49 50  1  0
 49 51  1  0
M  END
>  <MolRegNo>  (1) 
2039153

>  <m>  (1) 
=

>  <Value>  (1) 
20

>  <Unit>  (1) 
nM

>  <Type>  (1) 
IC50

>  <pValue>  (1) 
7.7

>  <Ligand Efficiency>  (1) 
0

>  <Binding Efficiency>  (1) 
0

>  <Surface Efficiency>  (1) 
0

>  <Assay Index>  (1) 
251728

>  <Assay Category>  (1) 


>  <Assay Organism>  (1) 
Homo sapiens

>  <Target ID>  (1) 
11365

>  <Target Name>  (1) 
Cytochrome P450 2D6

>  <Target Organism>  (1) 
Homo sapiens

>  <Target Description>  (1) 
Target is a single protein chain

>  <Sequence Accession>  (1) 
P10635

>  <Reference>  (1) 
J Med Chem 48 (21), 6632-6642 (2005)

>  <Pubmed ID>  (1) 
16220979

>  <DOI>  (1) 
10.1021/jm0503704

$$$$
