4wnv_ligand_1048
     RDKit          2D

 21 23  0  0  0  0  0  0  0  0999 V2000
    0.0000   -0.0000   -0.0000 Cl  0  0  0  0  0  0  0  0  0  0  0  0
   -0.7523   -1.2897   -0.0000 C   0  0  0  0  0  0  0  0  0  0  0  0
   -2.2808   -1.2897   -0.0000 C   0  0  0  0  0  0  0  0  0  0  0  0
    0.0000   -2.5793   -0.0000 C   0  0  0  0  0  0  0  0  0  0  0  0
   -3.0570    0.0239   -0.0000 Cl  0  0  0  0  0  0  0  0  0  0  0  0
   -3.0451   -2.6032   -0.0000 C   0  0  0  0  0  0  0  0  0  0  0  0
   -0.7642   -3.8810   -0.0000 C   0  0  0  0  0  0  0  0  0  0  0  0
   -2.2927   -3.8929   -0.0000 C   0  0  0  0  0  0  0  0  0  0  0  0
   -0.0119   -5.1706   -0.0000 C   0  0  0  0  0  0  0  0  0  0  0  0
    1.2658   -5.9110   -0.0000 C   0  0  0  0  0  0  0  0  0  0  0  0
   -1.3255   -5.9229   -0.0000 C   0  0  0  0  0  0  0  0  0  0  0  0
    1.2777   -4.4183   -0.0000 C   0  0  0  0  0  0  0  0  0  0  0  0
    2.7585   -5.8990   -0.0000 C   0  0  0  0  0  0  0  0  0  0  0  0
    1.2538   -7.4037   -0.0000 C   0  0  0  0  0  0  0  0  0  0  0  0
   -1.3374   -7.4156   -0.0000 C   0  0  0  0  0  0  0  0  0  0  0  0
    3.4988   -7.1887   -0.0000 O   0  0  0  0  0  0  0  0  0  0  0  0
    3.4988   -4.5855   -0.0000 C   0  0  0  0  0  0  0  0  0  0  0  0
   -0.0597   -8.1321   -0.0000 N   0  0  0  0  0  0  0  0  0  0  0  0
    2.7346   -8.4784   -0.0000 C   0  0  0  0  0  0  0  0  0  0  0  0
    4.9915   -4.5736   -0.0000 C   0  0  0  0  0  0  0  0  0  0  0  0
    5.7319   -3.2600   -0.0000 C   0  0  0  0  0  0  0  0  0  0  0  0
  1  2  1  0
  2  3  2  0
  2  4  1  0
  3  5  1  0
  3  6  1  0
  4  7  2  0
  6  8  2  0
  9  7  1  6
  9 10  1  0
  9 11  1  0
  9 12  1  0
 10 13  1  1
 10 14  1  0
 11 15  1  0
 13 16  1  0
 13 17  1  0
 14 18  1  0
 16 19  1  0
 17 20  1  0
 20 21  2  0
  7  8  1  0
 10 12  1  0
 15 18  1  0
M  END
>  <MolRegNo>  (1) 
650220

>  <m>  (1) 
=

>  <Value>  (1) 
3000

>  <Unit>  (1) 
nM

>  <Type>  (1) 
IC50

>  <pValue>  (1) 
5.52

>  <Ligand Efficiency>  (1) 
0

>  <Binding Efficiency>  (1) 
0

>  <Surface Efficiency>  (1) 
0

>  <Assay Index>  (1) 
487211

>  <Assay Category>  (1) 


>  <Assay Organism>  (1) 
Homo sapiens

>  <Target ID>  (1) 
11365

>  <Target Name>  (1) 
Cytochrome P450 2D6

>  <Target Organism>  (1) 
Homo sapiens

>  <Target Description>  (1) 
Target is a single protein chain

>  <Sequence Accession>  (1) 
P10635

>  <Reference>  (1) 
J Med Chem 53 (13), 4989-5001 (2010)

>  <Pubmed ID>  (1) 
20527970

>  <DOI>  (1) 
10.1021/jm100481d

$$$$
