4wnv_ligand_227
     RDKit          2D

 24 26  0  0  0  0  0  0  0  0999 V2000
    0.0000   -0.0000   -0.0000 F   0  0  0  0  0  0  0  0  0  0  0  0
   -1.3007   -0.7331   -0.0000 C   0  0  0  0  0  0  0  0  0  0  0  0
   -2.6014    0.0236   -0.0000 C   0  0  0  0  0  0  0  0  0  0  0  0
   -1.3125   -2.2230   -0.0000 C   0  0  0  0  0  0  0  0  0  0  0  0
   -3.9021   -0.7095   -0.0000 C   0  0  0  0  0  0  0  0  0  0  0  0
   -2.6250   -2.9561   -0.0000 C   0  0  0  0  0  0  0  0  0  0  0  0
   -5.2027    0.0473   -0.0000 N   0  0  0  0  0  0  0  0  0  0  0  0
   -3.9257   -2.1875   -0.0000 C   0  0  0  0  0  0  0  0  0  0  0  0
   -6.5153   -0.6858   -0.0000 C   0  0  0  0  0  0  0  0  0  0  0  0
   -6.5271   -2.1639   -0.0000 O   0  0  0  0  0  0  0  0  0  0  0  0
   -7.8278    0.0709   -0.0000 C   0  0  0  0  0  0  0  0  0  0  0  0
   -7.8396    1.5726   -0.0000 C   0  0  0  0  0  0  0  0  0  0  0  0
   -9.1403    2.3294   -0.0000 N   0  0  0  0  0  0  0  0  0  0  0  0
  -10.4410    1.5963   -0.0000 C   0  0  0  0  0  0  0  0  0  0  0  0
   -9.1521    3.8311   -0.0000 C   0  0  0  0  0  0  0  0  0  0  0  0
  -11.7416    2.3531   -0.0000 C   0  0  0  0  0  0  0  0  0  0  0  0
  -10.4528    4.5997   -0.0000 C   0  0  0  0  0  0  0  0  0  0  0  0
  -11.7535    3.8548   -0.0000 C   0  0  0  0  0  0  0  0  0  0  0  0
  -13.0660    4.6115   -0.0000 C   0  0  0  0  0  0  0  0  0  0  0  0
  -14.3667    3.8784   -0.0000 C   0  0  0  0  0  0  0  0  0  0  0  0
  -14.5322    2.4004   -0.0000 N   0  0  0  0  0  0  0  0  0  0  0  0
  -15.7501    4.4933   -0.0000 C   0  0  0  0  0  0  0  0  0  0  0  0
  -16.0103    2.0929   -0.0000 C   0  0  0  0  0  0  0  0  0  0  0  0
  -16.7552    3.3936   -0.0000 N   0  0  0  0  0  0  0  0  0  0  0  0
  1  2  1  0
  2  3  2  0
  2  4  1  0
  3  5  1  0
  4  6  2  0
  5  7  1  0
  5  8  2  0
  7  9  1  0
  9 10  2  0
  9 11  1  0
 11 12  1  0
 12 13  1  0
 13 14  1  0
 13 15  1  0
 14 16  1  0
 15 17  1  0
 16 18  1  0
 18 19  1  0
 19 20  1  0
 20 21  1  0
 20 22  2  0
 21 23  2  0
 22 24  1  0
  6  8  1  0
 17 18  1  0
 23 24  1  0
M  END
>  <MolRegNo>  (1) 
335099

>  <m>  (1) 
=

>  <Value>  (1) 
100

>  <Unit>  (1) 
nM

>  <Type>  (1) 
IC50

>  <pValue>  (1) 
7

>  <Ligand Efficiency>  (1) 
0

>  <Binding Efficiency>  (1) 
0

>  <Surface Efficiency>  (1) 
0

>  <Assay Index>  (1) 
255173

>  <Assay Category>  (1) 


>  <Assay Organism>  (1) 
Homo sapiens

>  <Target ID>  (1) 
11365

>  <Target Name>  (1) 
Cytochrome P450 2D6

>  <Target Organism>  (1) 
Homo sapiens

>  <Target Description>  (1) 
Target is a single protein chain

>  <Sequence Accession>  (1) 
P10635

>  <Reference>  (1) 
Bioorg Med Chem Lett 16 (2), 395-399 (2006)

>  <Pubmed ID>  (1) 
16246552

>  <DOI>  (1) 
10.1016/j.bmcl.2005.09.076

$$$$
