4wnv_ligand_110
     RDKit          2D

 16 16  0  0  0  0  0  0  0  0999 V2000
    0.0000   -0.0000   -0.0000 O   0  0  0  0  0  0  0  0  0  0  0  0
   -0.0119   -1.4911   -0.0000 C   0  0  0  0  0  0  0  0  0  0  0  0
    1.2883    0.7635   -0.0000 C   0  0  0  0  0  0  0  0  0  0  0  0
   -1.3241   -2.2427   -0.0000 C   0  0  0  0  0  0  0  0  0  0  0  0
    1.2883   -2.2307   -0.0000 C   0  0  0  0  0  0  0  0  0  0  0  0
    2.5886    0.0239   -0.0000 C   0  0  0  0  0  0  0  0  0  0  0  0
   -1.3361   -3.7338   -0.0000 C   0  0  0  0  0  0  0  0  0  0  0  0
    1.2764   -3.7338   -0.0000 C   0  0  0  0  0  0  0  0  0  0  0  0
    2.5767   -1.4673   -0.0000 O   0  0  0  0  0  0  0  0  0  0  0  0
    3.8769    0.8112   -0.0000 C   0  0  0  0  0  0  0  0  0  0  0  0
   -0.0477   -4.4734   -0.0000 C   0  0  0  0  0  0  0  0  0  0  0  0
    5.1653    0.0596   -0.0000 N   0  0  0  0  0  0  0  0  0  0  0  0
    6.4655    0.8350   -0.0000 C   0  0  0  0  0  0  0  0  0  0  0  0
    7.7539    0.0954   -0.0000 C   0  0  0  0  0  0  0  0  0  0  0  0
    6.4417    2.3500   -0.0000 C   0  0  0  0  0  0  0  0  0  0  0  0
    7.7539    1.6104   -0.0000 C   0  0  0  0  0  0  0  0  0  0  0  0
  1  2  1  0
  1  3  1  0
  2  4  2  0
  2  5  1  0
  3  6  1  0
  4  7  1  0
  5  8  2  0
  6  9  1  0
  6 10  1  0
  7 11  2  0
 10 12  1  0
 12 13  1  0
 13 14  1  0
 13 15  1  0
 13 16  1  0
  8 11  1  0
M  END
>  <MolRegNo>  (1) 
301182

>  <m>  (1) 
=

>  <Value>  (1) 
28000

>  <Unit>  (1) 
nM

>  <Type>  (1) 
IC50

>  <pValue>  (1) 
4.55

>  <Ligand Efficiency>  (1) 
0

>  <Binding Efficiency>  (1) 
0

>  <Surface Efficiency>  (1) 
0

>  <Assay Index>  (1) 
238811

>  <Assay Category>  (1) 


>  <Assay Organism>  (1) 
Homo sapiens

>  <Target ID>  (1) 
11365

>  <Target Name>  (1) 
Cytochrome P450 2D6

>  <Target Organism>  (1) 
Homo sapiens

>  <Target Description>  (1) 
Target is a single protein chain

>  <Sequence Accession>  (1) 
P10635

>  <Reference>  (1) 
Bioorg Med Chem Lett 15 (17), 3816-3820 (2005)

>  <Pubmed ID>  (1) 
15993593

>  <DOI>  (1) 
10.1016/j.bmcl.2005.06.007

$$$$
