4wnv_ligand_845
     RDKit          2D

 28 30  0  0  0  0  0  0  0  0999 V2000
    0.0000   -0.0000   -0.0000 F   0  0  0  0  0  0  0  0  0  0  0  0
   -1.1021    0.6439   -0.0000 C   0  0  0  0  0  0  0  0  0  0  0  0
   -1.1144    2.2289   -0.0000 C   0  0  0  0  0  0  0  0  0  0  0  0
   -2.4765   -0.1238   -0.0000 C   0  0  0  0  0  0  0  0  0  0  0  0
   -0.0371    2.8728   -0.0000 F   0  0  0  0  0  0  0  0  0  0  0  0
   -2.4889    3.0214   -0.0000 C   0  0  0  0  0  0  0  0  0  0  0  0
   -3.8510    0.6687   -0.0000 C   0  0  0  0  0  0  0  0  0  0  0  0
   -3.8634    2.2536   -0.0000 C   0  0  0  0  0  0  0  0  0  0  0  0
   -4.9530    0.0495   -0.0000 F   0  0  0  0  0  0  0  0  0  0  0  0
   -5.2378    3.0585   -0.0000 C   0  0  0  0  0  0  0  0  0  0  0  0
   -5.2502    4.6435   -0.0000 C   0  0  0  0  0  0  0  0  0  0  0  0
   -4.1729    5.2874   -0.0000 N   0  0  0  0  0  0  0  0  0  0  0  0
   -6.6247    5.4483   -0.0000 C   0  0  0  0  0  0  0  0  0  0  0  0
   -6.6371    7.0333   -0.0000 C   0  0  0  0  0  0  0  0  0  0  0  0
   -5.5598    7.6772   -0.0000 O   0  0  0  0  0  0  0  0  0  0  0  0
   -8.0115    7.8382   -0.0000 N   0  0  0  0  0  0  0  0  0  0  0  0
   -8.1725    9.3984   -0.0000 C   0  0  0  0  0  0  0  0  0  0  0  0
   -9.4355    7.1943   -0.0000 C   0  0  0  0  0  0  0  0  0  0  0  0
   -9.7203    9.7327   -0.0000 C   0  0  0  0  0  0  0  0  0  0  0  0
   -7.0085   10.4509   -0.0000 C   0  0  0  0  0  0  0  0  0  0  0  0
  -10.5004    8.3706   -0.0000 C   0  0  0  0  0  0  0  0  0  0  0  0
   -7.3429   11.9987   -0.0000 N   0  0  0  0  0  0  0  0  0  0  0  0
   -6.1789   13.0513   -0.0000 C   0  0  0  0  0  0  0  0  0  0  0  0
   -8.5440   12.4074   -0.0000 C   0  0  0  0  0  0  0  0  0  0  0  0
   -5.0026   12.6674   -0.0000 O   0  0  0  0  0  0  0  0  0  0  0  0
   -6.5132   14.5991   -0.0000 C   0  0  0  0  0  0  0  0  0  0  0  0
   -6.0179   16.0107   -0.0000 C   0  0  0  0  0  0  0  0  0  0  0  0
   -7.5534   15.6887   -0.0000 C   0  0  0  0  0  0  0  0  0  0  0  0
  1  2  1  0
  2  3  2  0
  2  4  1  0
  3  5  1  0
  3  6  1  0
  4  7  2  0
  6  8  2  0
  7  9  1  0
  8 10  1  0
 10 11  1  0
 11 12  1  1
 11 13  1  0
 13 14  1  0
 14 15  2  0
 14 16  1  0
 16 17  1  0
 16 18  1  0
 17 19  1  0
 17 20  1  6
 18 21  1  0
 20 22  1  0
 22 23  1  0
 22 24  1  0
 23 25  2  0
 23 26  1  0
 26 27  1  0
 26 28  1  0
  7  8  1  0
 19 21  1  0
 27 28  1  0
M  END
>  <MolRegNo>  (1) 
567863

>  <m>  (1) 
=

>  <Value>  (1) 
1100

>  <Unit>  (1) 
nM

>  <Type>  (1) 
IC50

>  <pValue>  (1) 
5.96

>  <Ligand Efficiency>  (1) 
0

>  <Binding Efficiency>  (1) 
0

>  <Surface Efficiency>  (1) 
0

>  <Assay Index>  (1) 
428036

>  <Assay Category>  (1) 


>  <Assay Organism>  (1) 
Homo sapiens

>  <Target ID>  (1) 
11365

>  <Target Name>  (1) 
Cytochrome P450 2D6

>  <Target Organism>  (1) 
Homo sapiens

>  <Target Description>  (1) 
Target is a single protein chain

>  <Sequence Accession>  (1) 
P10635

>  <Reference>  (1) 
Bioorg Med Chem Lett 19 (16), 4818-4823 (2009)

>  <Pubmed ID>  (1) 
19576767

>  <DOI>  (1) 
10.1016/j.bmcl.2009.06.036

$$$$
