4wnv_ligand_718
     RDKit          2D

 27 30  0  0  0  0  0  0  0  0999 V2000
    0.0000   -0.0000   -0.0000 S   0  0  0  0  0  0  0  0  0  0  0  0
   -1.4391    0.4718   -0.0000 C   0  0  0  0  0  0  0  0  0  0  0  0
    0.8729    1.2268   -0.0000 C   0  0  0  0  0  0  0  0  0  0  0  0
   -2.8782    0.0236   -0.0000 N   0  0  0  0  0  0  0  0  0  0  0  0
   -1.4509    1.9817   -0.0000 N   0  0  0  0  0  0  0  0  0  0  0  0
   -0.0236    2.4535   -0.0000 C   0  0  0  0  0  0  0  0  0  0  0  0
   -3.7747    1.2504   -0.0000 C   0  0  0  0  0  0  0  0  0  0  0  0
   -2.8900    2.4535   -0.0000 C   0  0  0  0  0  0  0  0  0  0  0  0
    0.4247    3.8926   -0.0000 C   0  0  0  0  0  0  0  0  0  0  0  0
   -4.8953    2.2648   -0.0000 C   0  0  0  0  0  0  0  0  0  0  0  0
   -4.8953    0.2595   -0.0000 C   0  0  0  0  0  0  0  0  0  0  0  0
    1.8755    4.2111   -0.0000 S   0  0  0  0  0  0  0  0  0  0  0  0
    2.3238    5.6502   -0.0000 C   0  0  0  0  0  0  0  0  0  0  0  0
    1.3093    6.7708   -0.0000 N   0  0  0  0  0  0  0  0  0  0  0  0
    3.7747    5.9687   -0.0000 N   0  0  0  0  0  0  0  0  0  0  0  0
   -0.1651    6.4759   -0.0000 C   0  0  0  0  0  0  0  0  0  0  0  0
    4.7655    4.8717   -0.0000 C   0  0  0  0  0  0  0  0  0  0  0  0
   -0.6370    5.0604   -0.0000 C   0  0  0  0  0  0  0  0  0  0  0  0
   -1.1796    7.5966   -0.0000 C   0  0  0  0  0  0  0  0  0  0  0  0
    6.2164    5.1902   -0.0000 C   0  0  0  0  0  0  0  0  0  0  0  0
    4.2937    3.4562   -0.0000 C   0  0  0  0  0  0  0  0  0  0  0  0
   -2.1115    4.7655   -0.0000 C   0  0  0  0  0  0  0  0  0  0  0  0
   -2.6541    7.3017   -0.0000 C   0  0  0  0  0  0  0  0  0  0  0  0
    7.2073    4.0932   -0.0000 C   0  0  0  0  0  0  0  0  0  0  0  0
    5.2846    2.3592   -0.0000 C   0  0  0  0  0  0  0  0  0  0  0  0
   -3.1259    5.8862   -0.0000 C   0  0  0  0  0  0  0  0  0  0  0  0
    6.7355    2.6777   -0.0000 C   0  0  0  0  0  0  0  0  0  0  0  0
  1  2  1  0
  1  3  1  0
  2  4  2  0
  2  5  1  0
  3  6  2  0
  4  7  1  0
  5  8  1  0
  6  9  1  0
  7 10  1  0
  7 11  1  0
  9 12  1  0
 12 13  1  0
 13 14  2  0
 13 15  1  0
 14 16  1  0
 15 17  1  0
 16 18  1  0
 16 19  1  0
 17 20  1  0
 17 21  1  0
 18 22  1  0
 19 23  1  0
 20 24  1  0
 21 25  1  0
 22 26  1  0
 24 27  1  0
  5  6  1  0
  7  8  1  0
 23 26  1  0
 25 27  1  0
M  END
>  <MolRegNo>  (1) 
454523

>  <m>  (1) 
=

>  <Value>  (1) 
400

>  <Unit>  (1) 
nM

>  <Type>  (1) 
IC50

>  <pValue>  (1) 
6.4

>  <Ligand Efficiency>  (1) 
0

>  <Binding Efficiency>  (1) 
0

>  <Surface Efficiency>  (1) 
0

>  <Assay Index>  (1) 
405808

>  <Assay Category>  (1) 


>  <Assay Organism>  (1) 


>  <Target ID>  (1) 
11365

>  <Target Name>  (1) 
Cytochrome P450 2D6

>  <Target Organism>  (1) 
Homo sapiens

>  <Target Description>  (1) 
Target is a single protein chain

>  <Sequence Accession>  (1) 
P10635

>  <Reference>  (1) 
J Med Chem 51 (24), 7915-7920 (2008)

>  <Pubmed ID>  (1) 
19053768

>  <DOI>  (1) 
10.1021/jm801065q

$$$$
