4wnv_ligand_850
     RDKit          2D

 26 28  0  0  0  0  0  0  0  0999 V2000
    0.0000   -0.0000   -0.0000 F   0  0  0  0  0  0  0  0  0  0  0  0
   -1.0905    0.6371   -0.0000 C   0  0  0  0  0  0  0  0  0  0  0  0
   -2.4505   -0.1348   -0.0000 C   0  0  0  0  0  0  0  0  0  0  0  0
   -1.1027    2.2055   -0.0000 C   0  0  0  0  0  0  0  0  0  0  0  0
   -2.4628   -1.3723   -0.0000 F   0  0  0  0  0  0  0  0  0  0  0  0
   -3.8106    0.6494   -0.0000 C   0  0  0  0  0  0  0  0  0  0  0  0
   -2.4628    2.9897   -0.0000 C   0  0  0  0  0  0  0  0  0  0  0  0
   -3.8228    2.2177   -0.0000 C   0  0  0  0  0  0  0  0  0  0  0  0
   -2.4750    4.2517   -0.0000 F   0  0  0  0  0  0  0  0  0  0  0  0
   -5.1829    3.0019   -0.0000 C   0  0  0  0  0  0  0  0  0  0  0  0
   -6.5429    2.2300   -0.0000 C   0  0  0  0  0  0  0  0  0  0  0  0
   -6.5552    0.9925   -0.0000 N   0  0  0  0  0  0  0  0  0  0  0  0
   -7.9030    3.0142   -0.0000 C   0  0  0  0  0  0  0  0  0  0  0  0
   -9.2630    2.2422   -0.0000 C   0  0  0  0  0  0  0  0  0  0  0  0
   -9.2753    1.0047   -0.0000 O   0  0  0  0  0  0  0  0  0  0  0  0
  -10.6231    3.0264   -0.0000 N   0  0  0  0  0  0  0  0  0  0  0  0
  -12.0321    2.3893   -0.0000 C   0  0  0  0  0  0  0  0  0  0  0  0
  -10.7823    4.5702   -0.0000 C   0  0  0  0  0  0  0  0  0  0  0  0
  -13.0858    3.5533   -0.0000 C   0  0  0  0  0  0  0  0  0  0  0  0
  -12.3629    0.8822   -0.0000 C   0  0  0  0  0  0  0  0  0  0  0  0
  -12.3139    4.9011   -0.0000 C   0  0  0  0  0  0  0  0  0  0  0  0
  -13.8578    0.4043   -0.0000 O   0  0  0  0  0  0  0  0  0  0  0  0
  -14.1886   -1.1027   -0.0000 C   0  0  0  0  0  0  0  0  0  0  0  0
  -15.6834   -1.5806   -0.0000 C   0  0  0  0  0  0  0  0  0  0  0  0
  -16.6391   -2.6956   -0.0000 C   0  0  0  0  0  0  0  0  0  0  0  0
  -17.1292   -1.2253   -0.0000 C   0  0  0  0  0  0  0  0  0  0  0  0
  1  2  1  0
  2  3  2  0
  2  4  1  0
  3  5  1  0
  3  6  1  0
  4  7  2  0
  6  8  2  0
  7  9  1  0
  8 10  1  0
 10 11  1  0
 11 12  1  6
 11 13  1  0
 13 14  1  0
 14 15  2  0
 14 16  1  0
 16 17  1  0
 16 18  1  0
 17 19  1  0
 17 20  1  1
 18 21  1  0
 20 22  1  0
 22 23  1  0
 23 24  1  0
 24 25  1  0
 24 26  1  0
  7  8  1  0
 19 21  1  0
 25 26  1  0
M  END
>  <MolRegNo>  (1) 
560698

>  <m>  (1) 
=

>  <Value>  (1) 
1700

>  <Unit>  (1) 
nM

>  <Type>  (1) 
IC50

>  <pValue>  (1) 
5.77

>  <Ligand Efficiency>  (1) 
0

>  <Binding Efficiency>  (1) 
0

>  <Surface Efficiency>  (1) 
0

>  <Assay Index>  (1) 
428036

>  <Assay Category>  (1) 


>  <Assay Organism>  (1) 
Homo sapiens

>  <Target ID>  (1) 
11365

>  <Target Name>  (1) 
Cytochrome P450 2D6

>  <Target Organism>  (1) 
Homo sapiens

>  <Target Description>  (1) 
Target is a single protein chain

>  <Sequence Accession>  (1) 
P10635

>  <Reference>  (1) 
Bioorg Med Chem Lett 19 (16), 4818-4823 (2009)

>  <Pubmed ID>  (1) 
19576767

>  <DOI>  (1) 
10.1016/j.bmcl.2009.06.036

$$$$
