4wnv_ligand_225
     RDKit          2D

 35 38  0  0  1  0  0  0  0  0999 V2000
    0.0000   -0.0000   -0.0000 S   0  0  0  0  0  0  0  0  0  0  0  0
   -0.0119   -1.4888   -0.0000 O   0  0  0  0  0  0  0  0  0  0  0  0
   -0.0119    1.5126   -0.0000 O   0  0  0  0  0  0  0  0  0  0  0  0
   -1.5126    0.0119   -0.0000 N   0  0  0  0  0  0  0  0  0  0  0  0
    1.4888    0.0238   -0.0000 C   0  0  0  0  0  0  0  0  0  0  0  0
   -2.2748    1.3220   -0.0000 C   0  0  0  0  0  0  0  0  0  0  0  0
    2.2391   -1.2625   -0.0000 C   0  0  0  0  0  0  0  0  0  0  0  0
   -1.5364    2.6321   -0.0000 C   0  0  0  0  0  0  0  0  0  0  0  0
    3.7279   -1.2386   -0.0000 C   0  0  0  0  0  0  0  0  0  0  0  0
   -0.0596    2.6440   -0.0000 C   0  0  0  0  0  0  0  0  0  0  0  0
   -2.2986    3.9422   -0.0000 C   0  0  0  0  0  0  0  0  0  0  0  0
    0.6670    3.9422   -0.0000 C   0  0  0  0  0  0  0  0  0  0  0  0
   -1.5602    5.2524   -0.0000 C   0  0  0  0  0  0  0  0  0  0  0  0
   -0.0953    5.2524   -0.0000 C   0  0  0  0  0  0  0  0  0  0  0  0
    2.1200    4.2638   -0.0000 C   0  0  0  0  0  0  0  0  0  0  0  0
    0.8933    6.3838   -0.0000 O   0  0  0  0  0  0  0  0  0  0  0  0
    2.2629    5.7645   -0.0000 C   0  0  0  0  0  0  0  0  0  0  0  0
    3.5492    6.5267   -0.0000 C   0  0  0  0  0  0  0  0  0  0  0  0
    3.5373    8.0393   -0.0000 O   0  0  0  0  0  0  0  0  0  0  0  0
    4.8355    5.7883   -0.0000 N   0  0  0  0  0  0  0  0  0  0  0  0
    6.1218    6.5506   -0.0000 C   0  0  0  0  0  0  0  0  0  0  0  0
    4.8236    4.2995   -0.0000 C   0  0  0  0  0  0  0  0  0  0  0  0
    6.1099    8.0631   -0.0000 C   0  0  0  0  0  0  0  0  0  0  0  0
    7.4081    5.8121   -0.0000 C   0  0  0  0  0  0  0  0  0  0  0  0
    4.7998    8.8254   -0.0000 C   0  0  0  0  0  0  0  0  0  0  0  0
    7.4081    8.8254   -0.0000 C   0  0  0  0  0  0  0  0  0  0  0  0
    8.6944    6.5744   -0.0000 N   0  0  0  0  0  0  0  0  0  0  0  0
    4.7879   10.3499   -0.0000 C   0  0  0  0  0  0  0  0  0  0  0  0
    7.3962   10.3499   -0.0000 C   0  0  0  0  0  0  0  0  0  0  0  0
   10.0521    5.9789   -0.0000 C   0  0  0  0  0  0  0  0  0  0  0  0
    8.8373    8.0870   -0.0000 C   0  0  0  0  0  0  0  0  0  0  0  0
    6.0741   11.1121   -0.0000 C   0  0  0  0  0  0  0  0  0  0  0  0
   11.0407    7.1103   -0.0000 C   0  0  0  0  0  0  0  0  0  0  0  0
   10.2903    8.4085   -0.0000 C   0  0  0  0  0  0  0  0  0  0  0  0
   12.5175    6.9674   -0.0000 O   0  0  0  0  0  0  0  0  0  0  0  0
  1  2  2  0
  1  3  2  0
  1  4  1  0
  1  5  1  0
  4  6  1  0
  5  7  1  0
  6  8  1  0
  7  9  1  0
  8 10  2  0
  8 11  1  0
 10 12  1  0
 11 13  2  0
 12 14  2  0
 12 15  1  0
 14 16  1  0
 15 17  1  0
 17 18  1  6
 18 19  2  0
 18 20  1  0
 21 20  1  0
 20 22  1  0
 21 23  1  0
 21 24  1  1
 23 25  2  0
 23 26  1  0
 24 27  1  0
 25 28  1  0
 26 29  2  0
 27 30  1  0
 27 31  1  0
 28 32  2  0
 30 33  1  0
 31 34  1  0
 33 35  1  6
 13 14  1  0
 16 17  1  0
 29 32  1  0
 33 34  1  0
M  END
>  <MolRegNo>  (1) 
332116

>  <m>  (1) 
=

>  <Value>  (1) 
5000

>  <Unit>  (1) 
nM

>  <Type>  (1) 
IC50

>  <pValue>  (1) 
5.3

>  <Ligand Efficiency>  (1) 
0

>  <Binding Efficiency>  (1) 
0

>  <Surface Efficiency>  (1) 
0

>  <Assay Index>  (1) 
253815

>  <Assay Category>  (1) 


>  <Assay Organism>  (1) 
Homo sapiens

>  <Target ID>  (1) 
11365

>  <Target Name>  (1) 
Cytochrome P450 2D6

>  <Target Organism>  (1) 
Homo sapiens

>  <Target Description>  (1) 
Target is a single protein chain

>  <Sequence Accession>  (1) 
P10635

>  <Reference>  (1) 
Bioorg Med Chem Lett 15 (23), 5114-5119 (2005)

>  <Pubmed ID>  (1) 
16203140

>  <DOI>  (1) 
10.1016/j.bmcl.2005.08.094

$$$$
