4wnv_ligand_591
     RDKit          2D

 45 51  0  0  1  0  0  0  0  0999 V2000
    0.0000   -0.0000   -0.0000 O   0  0  0  0  0  0  0  0  0  0  0  0
   -1.5178    0.0119   -0.0000 C   0  0  0  0  0  0  0  0  0  0  0  0
    0.7352    1.3162   -0.0000 C   0  0  0  0  0  0  0  0  0  0  0  0
   -2.2767   -1.2806   -0.0000 C   0  0  0  0  0  0  0  0  0  0  0  0
   -2.2767    1.3281   -0.0000 C   0  0  0  0  0  0  0  0  0  0  0  0
   -3.7944   -1.2688   -0.0000 C   0  0  0  0  0  0  0  0  0  0  0  0
   -1.5415   -2.5731   -0.0000 C   0  0  0  0  0  0  0  0  0  0  0  0
   -3.7944    1.3399   -0.0000 C   0  0  0  0  0  0  0  0  0  0  0  0
   -4.5533    0.0474   -0.0000 C   0  0  0  0  0  0  0  0  0  0  0  0
   -0.0474   -2.5613   -0.0000 C   0  0  0  0  0  0  0  0  0  0  0  0
    0.8300   -1.3281   -0.0000 N   0  0  0  0  0  0  0  0  0  0  0  0
    0.8300   -3.7707   -0.0000 N   0  0  0  0  0  0  0  0  0  0  0  0
    2.2530   -1.7786   -0.0000 C   0  0  0  0  0  0  0  0  0  0  0  0
    2.2530   -3.2964   -0.0000 C   0  0  0  0  0  0  0  0  0  0  0  0
    3.5454   -1.0198   -0.0000 C   0  0  0  0  0  0  0  0  0  0  0  0
    3.5454   -4.0316   -0.0000 C   0  0  0  0  0  0  0  0  0  0  0  0
    4.8379   -1.7549   -0.0000 C   0  0  0  0  0  0  0  0  0  0  0  0
    4.8379   -3.2727   -0.0000 C   0  0  0  0  0  0  0  0  0  0  0  0
    6.1304   -4.0079   -0.0000 C   0  0  0  0  0  0  0  0  0  0  0  0
    6.2727   -5.4901   -0.0000 N   0  0  0  0  0  0  0  0  0  0  0  0
    7.4940   -3.3794   -0.0000 C   0  0  0  0  0  0  0  0  0  0  0  0
    7.7312   -5.7865   -0.0000 N   0  0  0  0  0  0  0  0  0  0  0  0
    7.9446   -1.9328   -0.0000 C   0  0  0  0  0  0  0  0  0  0  0  0
    8.4901   -4.4822   -0.0000 C   0  0  0  0  0  0  0  0  0  0  0  0
    8.3359   -7.1502   -0.0000 C   0  0  0  0  0  0  0  0  0  0  0  0
    9.4031   -1.6126   -0.0000 N   0  0  0  0  0  0  0  0  0  0  0  0
    6.9249   -0.8063   -0.0000 N   0  0  0  0  0  0  0  0  0  0  0  0
    9.9486   -4.1620   -0.0000 N   0  0  0  0  0  0  0  0  0  0  0  0
    9.8181   -7.2925   -0.0000 C   0  0  0  0  0  0  0  0  0  0  0  0
    7.4347   -8.3596   -0.0000 C   0  0  0  0  0  0  0  0  0  0  0  0
   10.3992   -2.7154   -0.0000 C   0  0  0  0  0  0  0  0  0  0  0  0
   10.4229   -8.6561   -0.0000 C   0  0  0  0  0  0  0  0  0  0  0  0
    8.0395   -9.7233   -0.0000 C   0  0  0  0  0  0  0  0  0  0  0  0
    9.5217   -9.8656   -0.0000 C   0  0  0  0  0  0  0  0  0  0  0  0
   10.1264  -11.2292   -0.0000 N   0  0  0  0  0  0  0  0  0  0  0  0
   11.6086  -11.3715   -0.0000 C   0  0  0  0  0  0  0  0  0  0  0  0
    9.2253  -12.4387   -0.0000 C   0  0  0  0  0  0  0  0  0  0  0  0
   12.2134  -12.7351   -0.0000 C   0  0  0  0  0  0  0  0  0  0  0  0
    9.8300  -13.8023   -0.0000 C   0  0  0  0  0  0  0  0  0  0  0  0
   11.3122  -13.9446   -0.0000 N   0  0  0  0  0  0  0  0  0  0  0  0
   11.9169  -15.3082   -0.0000 C   0  0  0  0  0  0  0  0  0  0  0  0
   11.0158  -16.5177   -0.0000 C   0  0  0  0  0  0  0  0  0  0  0  0
   11.6205  -17.8813   -0.0000 C   0  0  0  0  0  0  0  0  0  0  0  0
   10.7193  -19.0908   -0.0000 O   0  0  0  0  0  0  0  0  0  0  0  0
   11.3241  -20.4545   -0.0000 C   0  0  0  0  0  0  0  0  0  0  0  0
  1  2  1  0
  1  3  1  0
  2  4  2  0
  2  5  1  0
  4  6  1  0
  4  7  1  0
  5  8  2  0
  6  9  2  0
  7 10  1  0
 10 11  2  0
 10 12  1  0
 11 13  1  0
 12 14  1  0
 13 15  2  0
 14 16  2  0
 15 17  1  0
 16 18  1  0
 18 19  1  0
 19 20  2  0
 19 21  1  0
 20 22  1  0
 21 23  2  0
 21 24  1  0
 25 22  1  1
 23 26  1  0
 23 27  1  0
 24 28  2  0
 25 29  1  0
 25 30  1  0
 26 31  2  0
 29 32  1  0
 30 33  1  0
 32 34  1  0
 34 35  1  6
 35 36  1  0
 35 37  1  0
 36 38  1  0
 37 39  1  0
 38 40  1  0
 40 41  1  0
 41 42  1  0
 42 43  1  0
 43 44  1  0
 44 45  1  0
  8  9  1  0
 13 14  1  0
 17 18  2  0
 22 24  1  0
 28 31  1  0
 33 34  1  0
 39 40  1  0
M  END
>  <MolRegNo>  (1) 
457129

>  <m>  (1) 
=

>  <Value>  (1) 
1600

>  <Unit>  (1) 
nM

>  <Type>  (1) 
IC50

>  <pValue>  (1) 
5.8

>  <Ligand Efficiency>  (1) 
0

>  <Binding Efficiency>  (1) 
0

>  <Surface Efficiency>  (1) 
0

>  <Assay Index>  (1) 
415799

>  <Assay Category>  (1) 


>  <Assay Organism>  (1) 
Homo sapiens

>  <Target ID>  (1) 
11365

>  <Target Name>  (1) 
Cytochrome P450 2D6

>  <Target Organism>  (1) 
Homo sapiens

>  <Target Description>  (1) 
Target is a single protein chain

>  <Sequence Accession>  (1) 
P10635

>  <Reference>  (1) 
Bioorg Med Chem Lett 19 (6), 1718-1721 (2009)

>  <Pubmed ID>  (1) 
19217287

>  <DOI>  (1) 
10.1016/j.bmcl.2009.01.086

$$$$
