4wnv_ligand_1038
     RDKit          2D

 18 20  0  0  0  0  0  0  0  0999 V2000
    0.0000   -0.0000   -0.0000 O   0  0  0  0  0  0  0  0  0  0  0  0
   -1.3115    0.7630   -0.0000 C   0  0  0  0  0  0  0  0  0  0  0  0
    1.2876    0.7630   -0.0000 C   0  0  0  0  0  0  0  0  0  0  0  0
   -2.6229    0.0238   -0.0000 C   0  0  0  0  0  0  0  0  0  0  0  0
   -2.6349   -1.4665   -0.0000 N   0  0  0  0  0  0  0  0  0  0  0  0
   -3.9344    0.7988   -0.0000 C   0  0  0  0  0  0  0  0  0  0  0  0
   -1.3472   -2.2056   -0.0000 C   0  0  0  0  0  0  0  0  0  0  0  0
   -3.9463   -2.1937   -0.0000 C   0  0  0  0  0  0  0  0  0  0  0  0
   -5.2459    0.0477   -0.0000 N   0  0  0  0  0  0  0  0  0  0  0  0
   -0.0596   -1.4426   -0.0000 C   0  0  0  0  0  0  0  0  0  0  0  0
   -1.3592   -3.6959   -0.0000 C   0  0  0  0  0  0  0  0  0  0  0  0
   -5.2578   -1.4426   -0.0000 C   0  0  0  0  0  0  0  0  0  0  0  0
    1.2280   -2.1699   -0.0000 C   0  0  0  0  0  0  0  0  0  0  0  0
   -0.0715   -4.4351   -0.0000 C   0  0  0  0  0  0  0  0  0  0  0  0
    1.2161   -3.6721   -0.0000 C   0  0  0  0  0  0  0  0  0  0  0  0
    2.6587   -1.6930   -0.0000 C   0  0  0  0  0  0  0  0  0  0  0  0
    2.6468   -4.1371   -0.0000 N   0  0  0  0  0  0  0  0  0  0  0  0
    3.5290   -2.9091   -0.0000 N   0  0  0  0  0  0  0  0  0  0  0  0
  1  2  1  0
  1  3  1  0
  2  4  1  0
  4  5  1  0
  4  6  1  0
  5  7  1  0
  5  8  1  0
  6  9  1  0
  7 10  2  0
  7 11  1  0
  8 12  1  0
 10 13  1  0
 11 14  2  0
 13 15  2  0
 13 16  1  0
 15 17  1  0
 16 18  2  0
  9 12  1  0
 14 15  1  0
 17 18  1  0
M  END
>  <MolRegNo>  (1) 
648347

>  <m>  (1) 
=

>  <Value>  (1) 
4000

>  <Unit>  (1) 
nM

>  <Type>  (1) 
IC50

>  <pValue>  (1) 
5.4

>  <Ligand Efficiency>  (1) 
0

>  <Binding Efficiency>  (1) 
0

>  <Surface Efficiency>  (1) 
0

>  <Assay Index>  (1) 
485181

>  <Assay Category>  (1) 


>  <Assay Organism>  (1) 


>  <Target ID>  (1) 
11365

>  <Target Name>  (1) 
Cytochrome P450 2D6

>  <Target Organism>  (1) 
Homo sapiens

>  <Target Description>  (1) 
Target is a single protein chain

>  <Sequence Accession>  (1) 
P10635

>  <Reference>  (1) 
Bioorg Med Chem Lett 20 (13), 3941-3945 (2010)

>  <Pubmed ID>  (1) 
20570146

>  <DOI>  (1) 
10.1016/j.bmcl.2010.05.008

$$$$
