4wnv_ligand_600
     RDKit          2D

 23 25  0  0  0  0  0  0  0  0999 V2000
    0.0000   -0.0000   -0.0000 O   0  0  0  0  0  0  0  0  0  0  0  0
    0.0000   -1.4868   -0.0000 C   0  0  0  0  0  0  0  0  0  0  0  0
   -1.3216   -2.2066   -0.0000 C   0  0  0  0  0  0  0  0  0  0  0  0
    1.2980   -2.2420   -0.0000 C   0  0  0  0  0  0  0  0  0  0  0  0
   -2.6432   -1.4278   -0.0000 O   0  0  0  0  0  0  0  0  0  0  0  0
   -1.3216   -3.6934   -0.0000 C   0  0  0  0  0  0  0  0  0  0  0  0
    1.2980   -3.7288   -0.0000 C   0  0  0  0  0  0  0  0  0  0  0  0
    2.5842   -1.4986   -0.0000 C   0  0  0  0  0  0  0  0  0  0  0  0
   -3.9530   -2.1594   -0.0000 C   0  0  0  0  0  0  0  0  0  0  0  0
   -0.0236   -4.4486   -0.0000 O   0  0  0  0  0  0  0  0  0  0  0  0
   -2.6314   -4.4132   -0.0000 C   0  0  0  0  0  0  0  0  0  0  0  0
    2.5960   -4.4840   -0.0000 C   0  0  0  0  0  0  0  0  0  0  0  0
    2.5606    0.0118   -0.0000 O   0  0  0  0  0  0  0  0  0  0  0  0
    3.8822   -2.2538   -0.0000 C   0  0  0  0  0  0  0  0  0  0  0  0
   -3.9530   -3.6462   -0.0000 C   0  0  0  0  0  0  0  0  0  0  0  0
   -2.6314   -5.9000   -0.0000 C   0  0  0  0  0  0  0  0  0  0  0  0
    3.8822   -3.7406   -0.0000 C   0  0  0  0  0  0  0  0  0  0  0  0
   -5.2746   -4.3660   -0.0000 C   0  0  0  0  0  0  0  0  0  0  0  0
   -3.9530   -6.6316   -0.0000 C   0  0  0  0  0  0  0  0  0  0  0  0
    5.1802   -4.4840   -0.0000 O   0  0  0  0  0  0  0  0  0  0  0  0
   -5.2746   -5.8528   -0.0000 C   0  0  0  0  0  0  0  0  0  0  0  0
   -6.5844   -6.5726   -0.0000 O   0  0  0  0  0  0  0  0  0  0  0  0
   -7.8824   -5.8528   -0.0000 C   0  0  0  0  0  0  0  0  0  0  0  0
  1  2  2  0
  2  3  1  0
  2  4  1  0
  3  5  1  0
  3  6  2  0
  4  7  2  0
  4  8  1  0
  5  9  1  0
  6 10  1  0
  6 11  1  0
  7 12  1  0
  8 13  1  0
  8 14  2  0
 11 15  2  0
 11 16  1  0
 12 17  2  0
 15 18  1  0
 16 19  2  0
 17 20  1  0
 18 21  2  0
 21 22  1  0
 22 23  1  0
  7 10  1  0
 14 17  1  0
 19 21  1  0
M  END
>  <MolRegNo>  (1) 
122490

>  <m>  (1) 
=

>  <Value>  (1) 
45500

>  <Unit>  (1) 
nM

>  <Type>  (1) 
IC50

>  <pValue>  (1) 
4.34

>  <Ligand Efficiency>  (1) 
0

>  <Binding Efficiency>  (1) 
0

>  <Surface Efficiency>  (1) 
0

>  <Assay Index>  (1) 
399811

>  <Assay Category>  (1) 


>  <Assay Organism>  (1) 
Homo sapiens

>  <Target ID>  (1) 
11365

>  <Target Name>  (1) 
Cytochrome P450 2D6

>  <Target Organism>  (1) 
Homo sapiens

>  <Target Description>  (1) 
Target is a single protein chain

>  <Sequence Accession>  (1) 
P10635

>  <Reference>  (1) 
J Nat Prod 67 (7), 1079-1083 (2004)

>  <Pubmed ID>  (1) 
15270556

>  <DOI>  (1) 
10.1021/np030556a

$$$$
