4wnv_ligand_528
     RDKit          2D

 24 26  0  0  0  0  0  0  0  0999 V2000
    0.0000   -0.0000   -0.0000 O   0  0  0  0  0  0  0  0  0  0  0  0
   -1.3114    0.7630   -0.0000 C   0  0  0  0  0  0  0  0  0  0  0  0
   -0.0119   -1.4902   -0.0000 C   0  0  0  0  0  0  0  0  0  0  0  0
   -1.3233    2.2770   -0.0000 C   0  0  0  0  0  0  0  0  0  0  0  0
   -2.6109    0.0119   -0.0000 C   0  0  0  0  0  0  0  0  0  0  0  0
    1.2756   -2.2294   -0.0000 C   0  0  0  0  0  0  0  0  0  0  0  0
   -1.3233   -2.2294   -0.0000 C   0  0  0  0  0  0  0  0  0  0  0  0
   -2.6347    3.0400   -0.0000 C   0  0  0  0  0  0  0  0  0  0  0  0
   -0.0358    3.0400   -0.0000 C   0  0  0  0  0  0  0  0  0  0  0  0
   -3.9222    0.7630   -0.0000 C   0  0  0  0  0  0  0  0  0  0  0  0
    2.5632   -1.4664   -0.0000 O   0  0  0  0  0  0  0  0  0  0  0  0
    1.2637   -3.7315   -0.0000 C   0  0  0  0  0  0  0  0  0  0  0  0
   -1.3352   -3.7196   -0.0000 C   0  0  0  0  0  0  0  0  0  0  0  0
   -3.9461    2.3009   -0.0000 N   0  0  0  0  0  0  0  0  0  0  0  0
    1.2518    2.3009   -0.0000 N   0  0  0  0  0  0  0  0  0  0  0  0
   -5.2336    0.0119   -0.0000 C   0  0  0  0  0  0  0  0  0  0  0  0
    3.8507   -2.2055   -0.0000 C   0  0  0  0  0  0  0  0  0  0  0  0
   -0.0596   -4.4706   -0.0000 C   0  0  0  0  0  0  0  0  0  0  0  0
    2.5393    3.0639   -0.0000 C   0  0  0  0  0  0  0  0  0  0  0  0
    3.8388   -3.6957   -0.0000 C   0  0  0  0  0  0  0  0  0  0  0  0
    5.1263   -1.4306   -0.0000 C   0  0  0  0  0  0  0  0  0  0  0  0
    5.1263   -4.4349   -0.0000 C   0  0  0  0  0  0  0  0  0  0  0  0
    6.4139   -2.1578   -0.0000 C   0  0  0  0  0  0  0  0  0  0  0  0
    6.4139   -3.6719   -0.0000 C   0  0  0  0  0  0  0  0  0  0  0  0
  1  2  1  0
  1  3  1  0
  2  4  2  0
  2  5  1  0
  3  6  1  0
  3  7  2  0
  4  8  1  0
  4  9  1  0
  5 10  2  0
  6 11  1  0
  6 12  2  0
  7 13  1  0
  8 14  2  0
  9 15  1  0
 10 16  1  0
 11 17  1  0
 12 18  1  0
 15 19  1  0
 17 20  2  0
 17 21  1  0
 20 22  1  0
 21 23  2  0
 22 24  2  0
 10 14  1  0
 13 18  2  0
 23 24  1  0
M  END
>  <MolRegNo>  (1) 
433759

>  <m>  (1) 
=

>  <Value>  (1) 
3400

>  <Unit>  (1) 
nM

>  <Type>  (1) 
IC50

>  <pValue>  (1) 
5.47

>  <Ligand Efficiency>  (1) 
0

>  <Binding Efficiency>  (1) 
0

>  <Surface Efficiency>  (1) 
0

>  <Assay Index>  (1) 
322807

>  <Assay Category>  (1) 


>  <Assay Organism>  (1) 


>  <Target ID>  (1) 
11365

>  <Target Name>  (1) 
Cytochrome P450 2D6

>  <Target Organism>  (1) 
Homo sapiens

>  <Target Description>  (1) 
Target is a single protein chain

>  <Sequence Accession>  (1) 
P10635

>  <Reference>  (1) 
Bioorg Med Chem Lett 18 (6), 1795-1798 (2008)

>  <Pubmed ID>  (1) 
18313294

>  <DOI>  (1) 
10.1016/j.bmcl.2008.02.036

$$$$
