4wnv_ligand_996
     RDKit          2D

 23 25  0  0  0  0  0  0  0  0999 V2000
    0.0000   -0.0000   -0.0000 N   0  0  0  0  0  0  0  0  0  0  0  0
   -1.2930   -0.7473   -0.0000 C   0  0  0  0  0  0  0  0  0  0  0  0
    1.2930   -0.7236   -0.0000 C   0  0  0  0  0  0  0  0  0  0  0  0
   -1.2930   -2.2302   -0.0000 C   0  0  0  0  0  0  0  0  0  0  0  0
   -2.6098   -0.0119   -0.0000 C   0  0  0  0  0  0  0  0  0  0  0  0
    1.2930   -2.2183   -0.0000 C   0  0  0  0  0  0  0  0  0  0  0  0
    0.0000   -2.9538   -0.0000 N   0  0  0  0  0  0  0  0  0  0  0  0
   -2.6217    1.4947   -0.0000 C   0  0  0  0  0  0  0  0  0  0  0  0
   -3.9147   -0.7592   -0.0000 C   0  0  0  0  0  0  0  0  0  0  0  0
   -3.8554    2.3844   -0.0000 C   0  0  0  0  0  0  0  0  0  0  0  0
   -1.4117    2.3963   -0.0000 C   0  0  0  0  0  0  0  0  0  0  0  0
   -3.4046    3.8316   -0.0000 C   0  0  0  0  0  0  0  0  0  0  0  0
   -5.3263    2.0760   -0.0000 C   0  0  0  0  0  0  0  0  0  0  0  0
   -1.8980    3.8435   -0.0000 C   0  0  0  0  0  0  0  0  0  0  0  0
    0.0000    1.9573   -0.0000 C   0  0  0  0  0  0  0  0  0  0  0  0
   -4.4248    4.9467   -0.0000 C   0  0  0  0  0  0  0  0  0  0  0  0
   -6.3465    3.1911   -0.0000 C   0  0  0  0  0  0  0  0  0  0  0  0
    1.0914    2.9775   -0.0000 C   0  0  0  0  0  0  0  0  0  0  0  0
   -5.8958    4.6383   -0.0000 C   0  0  0  0  0  0  0  0  0  0  0  0
    2.5030    2.5386   -0.0000 N   0  0  0  0  0  0  0  0  0  0  0  0
   -6.9159    5.7534   -0.0000 C   0  0  0  0  0  0  0  0  0  0  0  0
    3.5944    3.5588   -0.0000 C   0  0  0  0  0  0  0  0  0  0  0  0
    2.8115    1.0914   -0.0000 C   0  0  0  0  0  0  0  0  0  0  0  0
  1  2  2  0
  1  3  1  0
  2  4  1  0
  2  5  1  0
  3  6  2  0
  4  7  2  0
  5  8  1  0
  5  9  1  1
  8 10  1  0
  8 11  2  0
 10 12  2  0
 10 13  1  0
 11 14  1  0
 11 15  1  0
 12 16  1  0
 13 17  2  0
 15 18  1  0
 16 19  2  0
 18 20  1  0
 19 21  1  0
 20 22  1  0
 20 23  1  0
  6  7  1  0
 12 14  1  0
 17 19  1  0
M  END
>  <MolRegNo>  (1) 
621093

>  <m>  (1) 
=

>  <Value>  (1) 
22000

>  <Unit>  (1) 
nM

>  <Type>  (1) 
IC50

>  <pValue>  (1) 
4.66

>  <Ligand Efficiency>  (1) 
0

>  <Binding Efficiency>  (1) 
0

>  <Surface Efficiency>  (1) 
0

>  <Assay Index>  (1) 
470598

>  <Assay Category>  (1) 


>  <Assay Organism>  (1) 


>  <Target ID>  (1) 
11365

>  <Target Name>  (1) 
Cytochrome P450 2D6

>  <Target Organism>  (1) 
Homo sapiens

>  <Target Description>  (1) 
Target is a single protein chain

>  <Sequence Accession>  (1) 
P10635

>  <Reference>  (1) 
Bioorg Med Chem Lett 20 (8), 2629-2633 (2010)

>  <Pubmed ID>  (1) 
20227880

>  <DOI>  (1) 
10.1016/j.bmcl.2010.02.055

$$$$
