4wnv_ligand_154
     RDKit          2D

 25 27  0  0  0  0  0  0  0  0999 V2000
    0.0000   -0.0000   -0.0000 S   0  0  0  0  0  0  0  0  0  0  0  0
    1.2577    0.7666   -0.0000 C   0  0  0  0  0  0  0  0  0  0  0  0
   -1.2937    0.7666   -0.0000 C   0  0  0  0  0  0  0  0  0  0  0  0
    1.2457    2.2998   -0.0000 C   0  0  0  0  0  0  0  0  0  0  0  0
    2.5514    0.0240   -0.0000 C   0  0  0  0  0  0  0  0  0  0  0  0
   -1.3056    2.2998   -0.0000 C   0  0  0  0  0  0  0  0  0  0  0  0
   -2.5873    0.0240   -0.0000 C   0  0  0  0  0  0  0  0  0  0  0  0
   -0.0359    3.0545   -0.0000 C   0  0  0  0  0  0  0  0  0  0  0  0
    2.5394    3.0545   -0.0000 C   0  0  0  0  0  0  0  0  0  0  0  0
    3.8211    0.7906   -0.0000 C   0  0  0  0  0  0  0  0  0  0  0  0
    2.5394   -1.4494   -0.0000 C   0  0  0  0  0  0  0  0  0  0  0  0
   -2.5993    3.0545   -0.0000 C   0  0  0  0  0  0  0  0  0  0  0  0
   -3.9049    0.7906   -0.0000 C   0  0  0  0  0  0  0  0  0  0  0  0
   -0.0479    4.5518   -0.0000 O   0  0  0  0  0  0  0  0  0  0  0  0
    2.5274    4.5518   -0.0000 N   0  0  0  0  0  0  0  0  0  0  0  0
    3.8091    2.3238   -0.0000 C   0  0  0  0  0  0  0  0  0  0  0  0
    1.2218   -2.1920   -0.0000 O   0  0  0  0  0  0  0  0  0  0  0  0
   -3.9169    2.3238   -0.0000 C   0  0  0  0  0  0  0  0  0  0  0  0
    1.2098    5.3064   -0.0000 C   0  0  0  0  0  0  0  0  0  0  0  0
    1.1978    6.8157   -0.0000 C   0  0  0  0  0  0  0  0  0  0  0  0
   -0.0838    7.5583   -0.0000 N   0  0  0  0  0  0  0  0  0  0  0  0
   -0.0958    9.0676   -0.0000 C   0  0  0  0  0  0  0  0  0  0  0  0
   -1.3775    6.8396   -0.0000 C   0  0  0  0  0  0  0  0  0  0  0  0
   -1.3895    9.8342   -0.0000 C   0  0  0  0  0  0  0  0  0  0  0  0
   -1.3895    5.3543   -0.0000 C   0  0  0  0  0  0  0  0  0  0  0  0
  1  2  1  0
  1  3  1  0
  2  4  2  0
  2  5  1  0
  3  6  2  0
  3  7  1  0
  4  8  1  0
  4  9  1  0
  5 10  2  0
  5 11  1  0
  6 12  1  0
  7 13  2  0
  8 14  2  0
  9 15  1  0
  9 16  2  0
 11 17  1  0
 12 18  2  0
 15 19  1  0
 19 20  1  0
 20 21  1  0
 21 22  1  0
 21 23  1  0
 22 24  1  0
 23 25  1  0
  6  8  1  0
 10 16  1  0
 13 18  1  0
M  END
>  <MolRegNo>  (1) 
26812

>  <m>  (1) 
=

>  <Value>  (1) 
1500

>  <Unit>  (1) 
nM

>  <Type>  (1) 
IC50

>  <pValue>  (1) 
5.82

>  <Ligand Efficiency>  (1) 
0

>  <Binding Efficiency>  (1) 
0

>  <Surface Efficiency>  (1) 
0

>  <Assay Index>  (1) 
237541

>  <Assay Category>  (1) 


>  <Assay Organism>  (1) 


>  <Target ID>  (1) 
11365

>  <Target Name>  (1) 
Cytochrome P450 2D6

>  <Target Organism>  (1) 
Homo sapiens

>  <Target Description>  (1) 
Target is a single protein chain

>  <Sequence Accession>  (1) 
P10635

>  <Reference>  (1) 
J Med Chem 47 (22), 5340-5346 (2004)

>  <Pubmed ID>  (1) 
15481972

>  <DOI>  (1) 
10.1021/jm049934e

$$$$
