4wnv_ligand_564
     RDKit          2D

 24 26  0  0  0  0  0  0  0  0999 V2000
    0.0000   -0.0000   -0.0000 F   0  0  0  0  0  0  0  0  0  0  0  0
    1.2968   -0.7376   -0.0000 C   0  0  0  0  0  0  0  0  0  0  0  0
    0.5354   -2.0344   -0.0000 F   0  0  0  0  0  0  0  0  0  0  0  0
    2.0344    0.5711   -0.0000 F   0  0  0  0  0  0  0  0  0  0  0  0
    2.5936   -1.4752   -0.0000 C   0  0  0  0  0  0  0  0  0  0  0  0
    2.5936   -2.9624   -0.0000 C   0  0  0  0  0  0  0  0  0  0  0  0
    3.8785   -0.7138   -0.0000 C   0  0  0  0  0  0  0  0  0  0  0  0
    1.2730   -3.7000   -0.0000 O   0  0  0  0  0  0  0  0  0  0  0  0
    3.8785   -3.7119   -0.0000 C   0  0  0  0  0  0  0  0  0  0  0  0
    5.1753   -1.4515   -0.0000 C   0  0  0  0  0  0  0  0  0  0  0  0
    1.2611   -5.1872   -0.0000 C   0  0  0  0  0  0  0  0  0  0  0  0
    5.1634   -2.9505   -0.0000 C   0  0  0  0  0  0  0  0  0  0  0  0
   -0.0476   -5.9367   -0.0000 C   0  0  0  0  0  0  0  0  0  0  0  0
    2.5579   -5.9367   -0.0000 C   0  0  0  0  0  0  0  0  0  0  0  0
   -0.0595   -7.4357   -0.0000 C   0  0  0  0  0  0  0  0  0  0  0  0
   -1.3682   -5.1753   -0.0000 C   0  0  0  0  0  0  0  0  0  0  0  0
    2.5460   -7.4357   -0.0000 O   0  0  0  0  0  0  0  0  0  0  0  0
    3.8547   -5.1753   -0.0000 C   0  0  0  0  0  0  0  0  0  0  0  0
   -1.3682   -8.1852   -0.0000 C   0  0  0  0  0  0  0  0  0  0  0  0
    1.2254   -8.1733   -0.0000 C   0  0  0  0  0  0  0  0  0  0  0  0
   -2.6769   -5.9129   -0.0000 C   0  0  0  0  0  0  0  0  0  0  0  0
    5.1396   -5.9129   -0.0000 N   0  0  0  0  0  0  0  0  0  0  0  0
   -2.6888   -7.4238   -0.0000 C   0  0  0  0  0  0  0  0  0  0  0  0
    6.4364   -5.1515   -0.0000 C   0  0  0  0  0  0  0  0  0  0  0  0
  1  2  1  0
  2  3  1  0
  2  4  1  0
  2  5  1  0
  5  6  2  0
  5  7  1  0
  6  8  1  0
  6  9  1  0
  7 10  2  0
 11  8  1  1
  9 12  2  0
 11 13  1  0
 11 14  1  0
 13 15  2  0
 13 16  1  0
 14 17  1  0
 14 18  1  1
 15 19  1  0
 15 20  1  0
 16 21  2  0
 18 22  1  0
 19 23  2  0
 22 24  1  0
 10 12  1  0
 17 20  1  0
 21 23  1  0
M  END
>  <MolRegNo>  (1) 
511347

>  <m>  (1) 
=

>  <Value>  (1) 
1400

>  <Unit>  (1) 
nM

>  <Type>  (1) 
IC50

>  <pValue>  (1) 
5.85

>  <Ligand Efficiency>  (1) 
0

>  <Binding Efficiency>  (1) 
0

>  <Surface Efficiency>  (1) 
0

>  <Assay Index>  (1) 
358939

>  <Assay Category>  (1) 


>  <Assay Organism>  (1) 


>  <Target ID>  (1) 
11365

>  <Target Name>  (1) 
Cytochrome P450 2D6

>  <Target Organism>  (1) 
Homo sapiens

>  <Target Description>  (1) 
Target is a single protein chain

>  <Sequence Accession>  (1) 
P10635

>  <Reference>  (1) 
Bioorg Med Chem Lett 18 (16), 4491-4494 (2008)

>  <Pubmed ID>  (1) 
18672364

>  <DOI>  (1) 
10.1016/j.bmcl.2008.07.049

$$$$
