4wnv_ligand_99
     RDKit          2D

 12 13  0  0  0  0  0  0  0  0999 V2000
    0.0000   -0.0000   -0.0000 S   0  0  0  0  0  0  0  0  0  0  0  0
   -1.4908    0.3339   -0.0000 C   0  0  0  0  0  0  0  0  0  0  0  0
    0.7514    1.3238   -0.0000 C   0  0  0  0  0  0  0  0  0  0  0  0
   -1.6339    1.8366   -0.0000 C   0  0  0  0  0  0  0  0  0  0  0  0
   -0.2743    2.4687   -0.0000 C   0  0  0  0  0  0  0  0  0  0  0  0
   -2.9577    2.6119   -0.0000 C   0  0  0  0  0  0  0  0  0  0  0  0
   -0.0358    3.6614   -0.0000 C   0  0  0  0  0  0  0  0  0  0  0  0
   -4.2815    1.8605   -0.0000 C   0  0  0  0  0  0  0  0  0  0  0  0
   -2.9696    4.1384   -0.0000 C   0  0  0  0  0  0  0  0  0  0  0  0
   -5.6053    2.6238   -0.0000 N   0  0  0  0  0  0  0  0  0  0  0  0
   -4.2935    4.9017   -0.0000 C   0  0  0  0  0  0  0  0  0  0  0  0
   -5.6173    4.1503   -0.0000 C   0  0  0  0  0  0  0  0  0  0  0  0
  1  2  1  0
  1  3  1  0
  2  4  2  0
  3  5  2  0
  4  6  1  0
  5  7  1  0
  6  8  2  0
  6  9  1  0
  8 10  1  0
  9 11  2  0
 10 12  2  0
  4  5  1  0
 11 12  1  0
M  END
>  <MolRegNo>  (1) 
299460

>  <m>  (1) 
=

>  <Value>  (1) 
193000

>  <Unit>  (1) 
nM

>  <Type>  (1) 
IC50

>  <pValue>  (1) 
0

>  <Ligand Efficiency>  (1) 
0

>  <Binding Efficiency>  (1) 
0

>  <Surface Efficiency>  (1) 
0

>  <Assay Index>  (1) 
238570

>  <Assay Category>  (1) 


>  <Assay Organism>  (1) 
Homo sapiens

>  <Target ID>  (1) 
11365

>  <Target Name>  (1) 
Cytochrome P450 2D6

>  <Target Organism>  (1) 
Homo sapiens

>  <Target Description>  (1) 
Target is a single protein chain

>  <Sequence Accession>  (1) 
P10635

>  <Reference>  (1) 
J Med Chem 48 (1), 224-239 (2005)

>  <Pubmed ID>  (1) 
15634016

>  <DOI>  (1) 
10.1021/jm049696n

$$$$
