4wnv_ligand_321
     RDKit          2D

 33 37  0  0  0  0  0  0  0  0999 V2000
    0.0000   -0.0000   -0.0000 F   0  0  0  0  0  0  0  0  0  0  0  0
   -0.2965    1.4823   -0.0000 C   0  0  0  0  0  0  0  0  0  0  0  0
   -1.7195    1.9804   -0.0000 C   0  0  0  0  0  0  0  0  0  0  0  0
    0.8182    2.4784   -0.0000 C   0  0  0  0  0  0  0  0  0  0  0  0
   -2.0159    3.4627   -0.0000 C   0  0  0  0  0  0  0  0  0  0  0  0
    0.5099    3.9489   -0.0000 C   0  0  0  0  0  0  0  0  0  0  0  0
   -0.9012    4.4469   -0.0000 C   0  0  0  0  0  0  0  0  0  0  0  0
   -1.1977    5.9292   -0.0000 C   0  0  0  0  0  0  0  0  0  0  0  0
   -1.6720    7.3641   -0.0000 N   0  0  0  0  0  0  0  0  0  0  0  0
   -2.7156    5.9529   -0.0000 C   0  0  0  0  0  0  0  0  0  0  0  0
    0.2846    5.9411   -0.0000 C   0  0  0  0  0  0  0  0  0  0  0  0
   -0.4743    8.2653   -0.0000 C   0  0  0  0  0  0  0  0  0  0  0  0
   -3.4745    7.2811   -0.0000 C   0  0  0  0  0  0  0  0  0  0  0  0
   -3.4745    4.6722   -0.0000 C   0  0  0  0  0  0  0  0  0  0  0  0
    0.7352    7.3759   -0.0000 N   0  0  0  0  0  0  0  0  0  0  0  0
   -0.4862    9.7713   -0.0000 O   0  0  0  0  0  0  0  0  0  0  0  0
   -4.9924    7.3048   -0.0000 C   0  0  0  0  0  0  0  0  0  0  0  0
   -4.9924    4.6841   -0.0000 C   0  0  0  0  0  0  0  0  0  0  0  0
    2.1582    7.8503   -0.0000 C   0  0  0  0  0  0  0  0  0  0  0  0
   -5.7632    6.0122   -0.0000 C   0  0  0  0  0  0  0  0  0  0  0  0
    3.2611    6.8542   -0.0000 C   0  0  0  0  0  0  0  0  0  0  0  0
    2.4547    9.3207   -0.0000 C   0  0  0  0  0  0  0  0  0  0  0  0
   -7.2692    6.0241   -0.0000 F   0  0  0  0  0  0  0  0  0  0  0  0
    4.6722    7.3166   -0.0000 C   0  0  0  0  0  0  0  0  0  0  0  0
    3.8777    9.7950   -0.0000 C   0  0  0  0  0  0  0  0  0  0  0  0
    4.9805    8.7871   -0.0000 N   0  0  0  0  0  0  0  0  0  0  0  0
    6.3917    9.2496   -0.0000 C   0  0  0  0  0  0  0  0  0  0  0  0
    7.4827    8.2535   -0.0000 C   0  0  0  0  0  0  0  0  0  0  0  0
    7.1388    6.8067   -0.0000 C   0  0  0  0  0  0  0  0  0  0  0  0
    8.8819    8.7278   -0.0000 C   0  0  0  0  0  0  0  0  0  0  0  0
    8.2297    5.8106   -0.0000 C   0  0  0  0  0  0  0  0  0  0  0  0
    9.9848    7.7435   -0.0000 C   0  0  0  0  0  0  0  0  0  0  0  0
    9.6527    6.2731   -0.0000 C   0  0  0  0  0  0  0  0  0  0  0  0
  1  2  1  0
  2  3  2  0
  2  4  1  0
  3  5  1  0
  4  6  2  0
  5  7  2  0
  7  8  1  0
  8  9  1  0
  8 10  1  0
  8 11  1  0
  9 12  1  0
 10 13  2  0
 10 14  1  0
 11 15  1  0
 12 16  2  0
 13 17  1  0
 14 18  2  0
 15 19  1  0
 17 20  2  0
 19 21  1  0
 19 22  1  0
 20 23  1  0
 21 24  1  0
 22 25  1  0
 24 26  1  0
 26 27  1  0
 27 28  1  0
 28 29  2  0
 28 30  1  0
 29 31  1  0
 30 32  2  0
 31 33  2  0
  6  7  1  0
 12 15  1  0
 18 20  1  0
 25 26  1  0
 32 33  1  0
M  END
>  <MolRegNo>  (1) 
371460

>  <m>  (1) 
=

>  <Value>  (1) 
4700

>  <Unit>  (1) 
nM

>  <Type>  (1) 
IC50

>  <pValue>  (1) 
5.33

>  <Ligand Efficiency>  (1) 
0

>  <Binding Efficiency>  (1) 
0

>  <Surface Efficiency>  (1) 
0

>  <Assay Index>  (1) 
278051

>  <Assay Category>  (1) 


>  <Assay Organism>  (1) 
Homo sapiens

>  <Target ID>  (1) 
11365

>  <Target Name>  (1) 
Cytochrome P450 2D6

>  <Target Organism>  (1) 
Homo sapiens

>  <Target Description>  (1) 
Target is a single protein chain

>  <Sequence Accession>  (1) 
P10635

>  <Reference>  (1) 
J Med Chem 50 (7), 1571-1583 (2007)

>  <Pubmed ID>  (1) 
17352462

>  <DOI>  (1) 
10.1021/jm061159a

$$$$
