4wnv_ligand_647
     RDKit          2D

 40 43  0  0  0  0  0  0  0  0999 V2000
    0.0000   -0.0000   -0.0000 Cl  0  0  0  0  0  0  0  0  0  0  0  0
    1.2886   -0.7330   -0.0000 C   0  0  0  0  0  0  0  0  0  0  0  0
    1.2768   -2.2226   -0.0000 C   0  0  0  0  0  0  0  0  0  0  0  0
    2.5773    0.0236   -0.0000 C   0  0  0  0  0  0  0  0  0  0  0  0
   -0.0355   -2.9674   -0.0000 Cl  0  0  0  0  0  0  0  0  0  0  0  0
    2.5773   -2.9556   -0.0000 C   0  0  0  0  0  0  0  0  0  0  0  0
    3.8541   -0.7212   -0.0000 C   0  0  0  0  0  0  0  0  0  0  0  0
    3.8541   -2.1872   -0.0000 C   0  0  0  0  0  0  0  0  0  0  0  0
    5.1428    0.0355   -0.0000 N   0  0  0  0  0  0  0  0  0  0  0  0
    6.4314   -0.6975   -0.0000 C   0  0  0  0  0  0  0  0  0  0  0  0
    5.1309    1.5487   -0.0000 C   0  0  0  0  0  0  0  0  0  0  0  0
    7.7201    0.0591   -0.0000 C   0  0  0  0  0  0  0  0  0  0  0  0
    3.8187    2.3054   -0.0000 C   0  0  0  0  0  0  0  0  0  0  0  0
    9.0087   -0.6739   -0.0000 O   0  0  0  0  0  0  0  0  0  0  0  0
    7.7082    1.5724   -0.0000 N   0  0  0  0  0  0  0  0  0  0  0  0
    3.8068    3.8187   -0.0000 O   0  0  0  0  0  0  0  0  0  0  0  0
    8.9969    2.3408   -0.0000 C   0  0  0  0  0  0  0  0  0  0  0  0
    6.3959    2.3290   -0.0000 C   0  0  0  0  0  0  0  0  0  0  0  0
    2.4945    4.5753   -0.0000 C   0  0  0  0  0  0  0  0  0  0  0  0
    8.9851    3.8423   -0.0000 C   0  0  0  0  0  0  0  0  0  0  0  0
   10.2855    1.6079   -0.0000 C   0  0  0  0  0  0  0  0  0  0  0  0
   10.2737    4.5989   -0.0000 C   0  0  0  0  0  0  0  0  0  0  0  0
    7.6846    4.5871   -0.0000 C   0  0  0  0  0  0  0  0  0  0  0  0
   11.5742    2.3645   -0.0000 N   0  0  0  0  0  0  0  0  0  0  0  0
   10.2619    6.1004   -0.0000 C   0  0  0  0  0  0  0  0  0  0  0  0
    7.6728    6.1004   -0.0000 C   0  0  0  0  0  0  0  0  0  0  0  0
   12.9338    1.7734   -0.0000 C   0  0  0  0  0  0  0  0  0  0  0  0
   11.7160    3.8778   -0.0000 C   0  0  0  0  0  0  0  0  0  0  0  0
    8.9614    6.8688   -0.0000 C   0  0  0  0  0  0  0  0  0  0  0  0
   13.9268    2.8965   -0.0000 C   0  0  0  0  0  0  0  0  0  0  0  0
   13.1702    4.1970   -0.0000 C   0  0  0  0  0  0  0  0  0  0  0  0
    8.9496    8.3821   -0.0000 C   0  0  0  0  0  0  0  0  0  0  0  0
   10.2382    9.1388   -0.0000 C   0  0  0  0  0  0  0  0  0  0  0  0
    7.6491    9.1388   -0.0000 C   0  0  0  0  0  0  0  0  0  0  0  0
   10.2264   10.6520   -0.0000 C   0  0  0  0  0  0  0  0  0  0  0  0
    7.6373   10.6402   -0.0000 C   0  0  0  0  0  0  0  0  0  0  0  0
    8.9141   11.4205   -0.0000 C   0  0  0  0  0  0  0  0  0  0  0  0
    8.9023   12.9338   -0.0000 C   0  0  0  0  0  0  0  0  0  0  0  0
    7.5900   13.6904   -0.0000 O   0  0  0  0  0  0  0  0  0  0  0  0
   10.1910   13.6904   -0.0000 N   0  0  0  0  0  0  0  0  0  0  0  0
  1  2  1  0
  2  3  2  0
  2  4  1  0
  3  5  1  0
  3  6  1  0
  4  7  2  0
  6  8  2  0
  7  9  1  0
  9 10  1  0
  9 11  1  0
 10 12  1  0
 11 13  1  0
 12 14  2  0
 12 15  1  0
 13 16  1  0
 15 17  1  0
 15 18  1  0
 16 19  1  0
 17 20  1  0
 17 21  1  0
 20 22  2  0
 20 23  1  0
 21 24  1  0
 22 25  1  0
 23 26  2  0
 24 27  1  0
 24 28  1  0
 25 29  2  0
 27 30  1  0
 28 31  1  0
 29 32  1  0
 32 33  2  0
 32 34  1  0
 33 35  1  0
 34 36  2  0
 35 37  2  0
 37 38  1  0
 38 39  2  0
 38 40  1  0
  7  8  1  0
 26 29  1  0
 30 31  1  0
 36 37  1  0
M  END
>  <MolRegNo>  (1) 
449324

>  <m>  (1) 
=

>  <Value>  (1) 
6200

>  <Unit>  (1) 
nM

>  <Type>  (1) 
IC50

>  <pValue>  (1) 
5.21

>  <Ligand Efficiency>  (1) 
0

>  <Binding Efficiency>  (1) 
0

>  <Surface Efficiency>  (1) 
0

>  <Assay Index>  (1) 
404069

>  <Assay Category>  (1) 


>  <Assay Organism>  (1) 


>  <Target ID>  (1) 
11365

>  <Target Name>  (1) 
Cytochrome P450 2D6

>  <Target Organism>  (1) 
Homo sapiens

>  <Target Description>  (1) 
Target is a single protein chain

>  <Sequence Accession>  (1) 
P10635

>  <Reference>  (1) 
Bioorg Med Chem Lett 18 (13), 3716-3719 (2008)

>  <Pubmed ID>  (1) 
18524591

>  <DOI>  (1) 
10.1016/j.bmcl.2008.05.058

$$$$
