4wnv_ligand_772
     RDKit          2D

 22 24  0  0  0  0  0  0  0  0999 V2000
    0.0000   -0.0000   -0.0000 O   0  0  0  0  0  0  0  0  0  0  0  0
   -0.0118   -1.4888   -0.0000 C   0  0  0  0  0  0  0  0  0  0  0  0
   -1.0870   -2.5403   -0.0000 C   0  0  0  0  0  0  0  0  0  0  0  0
    1.0398   -2.5403   -0.0000 C   0  0  0  0  0  0  0  0  0  0  0  0
   -2.5994   -2.5285   -0.0000 N   0  0  0  0  0  0  0  0  0  0  0  0
   -0.0354   -3.5919   -0.0000 C   0  0  0  0  0  0  0  0  0  0  0  0
    2.5285   -2.5285   -0.0000 O   0  0  0  0  0  0  0  0  0  0  0  0
   -3.3556   -1.2170   -0.0000 C   0  0  0  0  0  0  0  0  0  0  0  0
   -0.0473   -5.0807   -0.0000 N   0  0  0  0  0  0  0  0  0  0  0  0
   -4.8680   -1.2052   -0.0000 C   0  0  0  0  0  0  0  0  0  0  0  0
   -2.6112    0.0945   -0.0000 C   0  0  0  0  0  0  0  0  0  0  0  0
    1.2406   -5.8250   -0.0000 C   0  0  0  0  0  0  0  0  0  0  0  0
   -5.6360    0.1063   -0.0000 C   0  0  0  0  0  0  0  0  0  0  0  0
   -3.3674    1.4060   -0.0000 C   0  0  0  0  0  0  0  0  0  0  0  0
    1.2288   -7.3138   -0.0000 C   0  0  0  0  0  0  0  0  0  0  0  0
    2.5285   -5.0688   -0.0000 C   0  0  0  0  0  0  0  0  0  0  0  0
   -4.8916    1.4179   -0.0000 N   0  0  0  0  0  0  0  0  0  0  0  0
    2.5167   -8.0582   -0.0000 C   0  0  0  0  0  0  0  0  0  0  0  0
   -0.0827   -8.0582   -0.0000 C   0  0  0  0  0  0  0  0  0  0  0  0
    2.5049   -9.5469   -0.0000 C   0  0  0  0  0  0  0  0  0  0  0  0
   -0.0945   -9.5469   -0.0000 C   0  0  0  0  0  0  0  0  0  0  0  0
    1.1934  -10.2913   -0.0000 C   0  0  0  0  0  0  0  0  0  0  0  0
  1  2  2  0
  2  3  1  0
  2  4  1  0
  3  5  1  0
  3  6  2  0
  4  7  2  0
  5  8  1  0
  6  9  1  0
  8 10  2  0
  8 11  1  0
 12  9  1  0
 10 13  1  0
 11 14  2  0
 12 15  1  0
 12 16  1  1
 13 17  2  0
 15 18  2  0
 15 19  1  0
 18 20  1  0
 19 21  2  0
 20 22  2  0
  4  6  1  0
 14 17  1  0
 21 22  1  0
M  END
>  <MolRegNo>  (1) 
480623

>  <m>  (1) 
=

>  <Value>  (1) 
3300

>  <Unit>  (1) 
nM

>  <Type>  (1) 
IC50

>  <pValue>  (1) 
5.48

>  <Ligand Efficiency>  (1) 
0

>  <Binding Efficiency>  (1) 
0

>  <Surface Efficiency>  (1) 
0

>  <Assay Index>  (1) 
347992

>  <Assay Category>  (1) 


>  <Assay Organism>  (1) 


>  <Target ID>  (1) 
11365

>  <Target Name>  (1) 
Cytochrome P450 2D6

>  <Target Organism>  (1) 
Homo sapiens

>  <Target Description>  (1) 
Target is a single protein chain

>  <Sequence Accession>  (1) 
P10635

>  <Reference>  (1) 
Bioorg Med Chem 17 (9), 3342-3351 (2009)

>  <Pubmed ID>  (1) 
19364658

>  <DOI>  (1) 
10.1016/j.bmc.2009.03.041

$$$$
