4wnv_ligand_1076
     RDKit          2D

 22 23  0  0  0  0  0  0  0  0999 V2000
    0.0000   -0.0000   -0.0000 Cl  0  0  0  0  0  0  0  0  0  0  0  0
   -0.7528    1.3057   -0.0000 C   0  0  0  0  0  0  0  0  0  0  0  0
   -0.0118    2.6113   -0.0000 C   0  0  0  0  0  0  0  0  0  0  0  0
   -2.2585    1.3292   -0.0000 C   0  0  0  0  0  0  0  0  0  0  0  0
    1.4704    2.6231   -0.0000 Cl  0  0  0  0  0  0  0  0  0  0  0  0
   -0.7646    3.9170   -0.0000 C   0  0  0  0  0  0  0  0  0  0  0  0
   -3.0230    0.0471   -0.0000 F   0  0  0  0  0  0  0  0  0  0  0  0
   -3.0113    2.6349   -0.0000 C   0  0  0  0  0  0  0  0  0  0  0  0
   -2.2585    3.9170   -0.0000 C   0  0  0  0  0  0  0  0  0  0  0  0
   -3.0113    5.2227   -0.0000 C   0  0  0  0  0  0  0  0  0  0  0  0
   -2.2702    6.5284   -0.0000 O   0  0  0  0  0  0  0  0  0  0  0  0
   -4.5169    5.2345   -0.0000 C   0  0  0  0  0  0  0  0  0  0  0  0
   -4.0346    3.8347   -0.0000 C   0  0  0  0  0  0  0  0  0  0  0  0
   -6.0226    5.2109   -0.0000 C   0  0  0  0  0  0  0  0  0  0  0  0
   -5.0110    6.6578   -0.0000 C   0  0  0  0  0  0  0  0  0  0  0  0
   -5.2227    2.9289   -0.0000 N   0  0  0  0  0  0  0  0  0  0  0  0
   -6.4578    3.7876   -0.0000 C   0  0  0  0  0  0  0  0  0  0  0  0
   -6.4813    6.9636   -0.0000 C   0  0  0  0  0  0  0  0  0  0  0  0
   -6.9754    8.3869   -0.0000 C   0  0  0  0  0  0  0  0  0  0  0  0
   -8.4457    8.6927   -0.0000 C   0  0  0  0  0  0  0  0  0  0  0  0
   -5.9990    9.5161   -0.0000 C   0  0  0  0  0  0  0  0  0  0  0  0
   -7.7517    9.6926   -0.0000 C   0  0  0  0  0  0  0  0  0  0  0  0
  1  2  1  0
  2  3  2  0
  2  4  1  0
  3  5  1  0
  3  6  1  0
  4  7  1  0
  4  8  2  0
  6  9  2  0
  9 10  1  0
 10 11  2  0
 10 12  1  0
 12 13  1  0
 12 14  1  0
 12 15  1  0
 13 16  1  0
 14 17  1  0
 15 18  1  0
 18 19  1  0
 19 20  1  0
 19 21  1  0
 19 22  1  0
  8  9  1  0
 16 17  1  0
M  END
>  <MolRegNo>  (1) 
690857

>  <m>  (1) 
=

>  <Value>  (1) 
13000

>  <Unit>  (1) 
nM

>  <Type>  (1) 
IC50

>  <pValue>  (1) 
4.89

>  <Ligand Efficiency>  (1) 
0

>  <Binding Efficiency>  (1) 
0

>  <Surface Efficiency>  (1) 
0

>  <Assay Index>  (1) 
497257

>  <Assay Category>  (1) 


>  <Assay Organism>  (1) 


>  <Target ID>  (1) 
11365

>  <Target Name>  (1) 
Cytochrome P450 2D6

>  <Target Organism>  (1) 
Homo sapiens

>  <Target Description>  (1) 
Target is a single protein chain

>  <Sequence Accession>  (1) 
P10635

>  <Reference>  (1) 
Bioorg Med Chem Lett 20 (18), 5559-5566 (2010)

>  <Pubmed ID>  (1) 
20691589

>  <DOI>  (1) 
10.1016/j.bmcl.2010.07.020

$$$$
