4wnv_ligand_242
     RDKit          2D

 22 24  0  0  0  0  0  0  0  0999 V2000
    0.0000   -0.0000   -0.0000 O   0  0  0  0  0  0  0  0  0  0  0  0
    1.2849   -0.7426   -0.0000 C   0  0  0  0  0  0  0  0  0  0  0  0
   -1.3084   -0.7308   -0.0000 C   0  0  0  0  0  0  0  0  0  0  0  0
    1.2613   -2.2279   -0.0000 C   0  0  0  0  0  0  0  0  0  0  0  0
    2.5697    0.0118   -0.0000 C   0  0  0  0  0  0  0  0  0  0  0  0
   -2.6169    0.0354   -0.0000 C   0  0  0  0  0  0  0  0  0  0  0  0
    2.5461   -2.9705   -0.0000 C   0  0  0  0  0  0  0  0  0  0  0  0
    3.8546   -0.7190   -0.0000 C   0  0  0  0  0  0  0  0  0  0  0  0
   -2.6287    1.5442   -0.0000 C   0  0  0  0  0  0  0  0  0  0  0  0
    3.8310   -2.2161   -0.0000 C   0  0  0  0  0  0  0  0  0  0  0  0
   -3.9371    2.3104   -0.0000 N   0  0  0  0  0  0  0  0  0  0  0  0
   -5.2455    1.5796   -0.0000 C   0  0  0  0  0  0  0  0  0  0  0  0
   -3.9489    3.8192   -0.0000 C   0  0  0  0  0  0  0  0  0  0  0  0
   -6.5540    2.3340   -0.0000 C   0  0  0  0  0  0  0  0  0  0  0  0
   -5.2573    4.5854   -0.0000 C   0  0  0  0  0  0  0  0  0  0  0  0
   -6.5657    3.8428   -0.0000 C   0  0  0  0  0  0  0  0  0  0  0  0
   -7.8742    4.5972   -0.0000 C   0  0  0  0  0  0  0  0  0  0  0  0
   -9.1826    3.8546   -0.0000 C   0  0  0  0  0  0  0  0  0  0  0  0
   -9.3476    2.3811   -0.0000 N   0  0  0  0  0  0  0  0  0  0  0  0
  -10.5618    4.4675   -0.0000 C   0  0  0  0  0  0  0  0  0  0  0  0
  -10.8211    2.0746   -0.0000 C   0  0  0  0  0  0  0  0  0  0  0  0
  -11.5755    3.3595   -0.0000 N   0  0  0  0  0  0  0  0  0  0  0  0
  1  2  1  0
  1  3  1  0
  2  4  2  0
  2  5  1  0
  3  6  1  0
  4  7  1  0
  5  8  2  0
  6  9  1  0
  7 10  2  0
  9 11  1  0
 11 12  1  0
 11 13  1  0
 12 14  1  0
 13 15  1  0
 14 16  1  0
 16 17  1  0
 17 18  1  0
 18 19  1  0
 18 20  2  0
 19 21  2  0
 20 22  1  0
  8 10  1  0
 15 16  1  0
 21 22  1  0
M  END
>  <MolRegNo>  (1) 
334934

>  <m>  (1) 
=

>  <Value>  (1) 
30

>  <Unit>  (1) 
nM

>  <Type>  (1) 
IC50

>  <pValue>  (1) 
7.52

>  <Ligand Efficiency>  (1) 
0

>  <Binding Efficiency>  (1) 
0

>  <Surface Efficiency>  (1) 
0

>  <Assay Index>  (1) 
257619

>  <Assay Category>  (1) 


>  <Assay Organism>  (1) 
Homo sapiens

>  <Target ID>  (1) 
11365

>  <Target Name>  (1) 
Cytochrome P450 2D6

>  <Target Organism>  (1) 
Homo sapiens

>  <Target Description>  (1) 
Target is a single protein chain

>  <Sequence Accession>  (1) 
P10635

>  <Reference>  (1) 
Bioorg Med Chem Lett 16 (4), 989-994 (2006)

>  <Pubmed ID>  (1) 
16297617

>  <DOI>  (1) 
10.1016/j.bmcl.2005.10.087

$$$$
