4wnv_ligand_513
     RDKit          2D

 40 43  0  0  1  0  0  0  0  0999 V2000
    0.0000   -0.0000   -0.0000 F   0  0  0  0  0  0  0  0  0  0  0  0
    1.4938   -0.0000   -0.0000 C   0  0  0  0  0  0  0  0  0  0  0  0
    2.2227   -1.2906   -0.0000 C   0  0  0  0  0  0  0  0  0  0  0  0
    2.2466    1.3145   -0.0000 C   0  0  0  0  0  0  0  0  0  0  0  0
    3.7165   -1.2906   -0.0000 C   0  0  0  0  0  0  0  0  0  0  0  0
    3.7285    1.3265   -0.0000 C   0  0  0  0  0  0  0  0  0  0  0  0
    4.4574    0.0239   -0.0000 C   0  0  0  0  0  0  0  0  0  0  0  0
    5.9512    0.0359   -0.0000 C   0  0  0  0  0  0  0  0  0  0  0  0
    6.6921    1.3504   -0.0000 C   0  0  0  0  0  0  0  0  0  0  0  0
    8.1859    1.3623   -0.0000 C   0  0  0  0  0  0  0  0  0  0  0  0
    5.9273    2.6769   -0.0000 C   0  0  0  0  0  0  0  0  0  0  0  0
    8.9268    2.6649   -0.0000 N   0  0  0  0  0  0  0  0  0  0  0  0
    6.6802    3.9914   -0.0000 C   0  0  0  0  0  0  0  0  0  0  0  0
    8.1740    3.9914   -0.0000 C   0  0  0  0  0  0  0  0  0  0  0  0
   10.4206    2.6649   -0.0000 C   0  0  0  0  0  0  0  0  0  0  0  0
   11.1496    1.3743   -0.0000 C   0  0  0  0  0  0  0  0  0  0  0  0
   12.6434    1.3743   -0.0000 C   0  0  0  0  0  0  0  0  0  0  0  0
   13.3962    2.6888   -0.0000 N   0  0  0  0  0  0  0  0  0  0  0  0
   13.3723    0.0837   -0.0000 C   0  0  0  0  0  0  0  0  0  0  0  0
   14.8900    2.6888   -0.0000 C   0  0  0  0  0  0  0  0  0  0  0  0
   15.6190    1.3982   -0.0000 O   0  0  0  0  0  0  0  0  0  0  0  0
   15.6429    4.0033   -0.0000 N   0  0  0  0  0  0  0  0  0  0  0  0
   17.1367    4.0033   -0.0000 C   0  0  0  0  0  0  0  0  0  0  0  0
   17.8656    2.7127   -0.0000 C   0  0  0  0  0  0  0  0  0  0  0  0
   17.8776    5.3179   -0.0000 C   0  0  0  0  0  0  0  0  0  0  0  0
   19.3594    2.7127   -0.0000 C   0  0  0  0  0  0  0  0  0  0  0  0
   19.3714    5.3298   -0.0000 C   0  0  0  0  0  0  0  0  0  0  0  0
   20.1003    1.4221   -0.0000 C   0  0  0  0  0  0  0  0  0  0  0  0
   20.1123    4.0272   -0.0000 C   0  0  0  0  0  0  0  0  0  0  0  0
   20.1123    6.6443   -0.0000 C   0  0  0  0  0  0  0  0  0  0  0  0
   21.5822    1.2667   -0.0000 N   0  0  0  0  0  0  0  0  0  0  0  0
   19.4670    0.0598   -0.0000 N   0  0  0  0  0  0  0  0  0  0  0  0
   20.8413    7.9708   -0.0000 C   0  0  0  0  0  0  0  0  0  0  0  0
   21.4029    5.9034   -0.0000 C   0  0  0  0  0  0  0  0  0  0  0  0
   18.7858    7.3972   -0.0000 C   0  0  0  0  0  0  0  0  0  0  0  0
   21.8690   -0.1912   -0.0000 N   0  0  0  0  0  0  0  0  0  0  0  0
   20.5664   -0.9441   -0.0000 N   0  0  0  0  0  0  0  0  0  0  0  0
   17.9851   -0.2271   -0.0000 C   0  0  0  0  0  0  0  0  0  0  0  0
   20.0645    9.2734   -0.0000 O   0  0  0  0  0  0  0  0  0  0  0  0
   22.3470    8.0067   -0.0000 O   0  0  0  0  0  0  0  0  0  0  0  0
  1  2  1  0
  2  3  2  0
  2  4  1  0
  3  5  1  0
  4  6  2  0
  5  7  2  0
  7  8  1  0
  9  8  1  6
  9 10  1  0
  9 11  1  0
 10 12  1  0
 11 13  1  0
 12 14  1  0
 12 15  1  0
 15 16  1  0
 16 17  1  0
 17 18  1  0
 17 19  1  6
 18 20  1  0
 20 21  2  0
 20 22  1  0
 22 23  1  0
 23 24  2  0
 23 25  1  0
 24 26  1  0
 25 27  2  0
 26 28  1  0
 26 29  2  0
 27 30  1  0
 28 31  2  0
 28 32  1  0
 30 33  1  0
 30 34  1  0
 30 35  1  0
 31 36  1  0
 32 37  1  0
 32 38  1  0
 33 39  2  0
 33 40  1  0
  6  7  1  0
 13 14  1  0
 27 29  1  0
 36 37  2  0
M  END
>  <MolRegNo>  (1) 
437679

>  <m>  (1) 
=

>  <Value>  (1) 
17000

>  <Unit>  (1) 
nM

>  <Type>  (1) 
IC50

>  <pValue>  (1) 
4.77

>  <Ligand Efficiency>  (1) 
0

>  <Binding Efficiency>  (1) 
0

>  <Surface Efficiency>  (1) 
0

>  <Assay Index>  (1) 
314783

>  <Assay Category>  (1) 


>  <Assay Organism>  (1) 


>  <Target ID>  (1) 
11365

>  <Target Name>  (1) 
Cytochrome P450 2D6

>  <Target Organism>  (1) 
Homo sapiens

>  <Target Description>  (1) 
Target is a single protein chain

>  <Sequence Accession>  (1) 
P10635

>  <Reference>  (1) 
Bioorg Med Chem Lett 18 (2), 576-585 (2008)

>  <Pubmed ID>  (1) 
18096386

>  <DOI>  (1) 
10.1016/j.bmcl.2007.11.067

$$$$
