4wnv_ligand_525
     RDKit          2D

 32 35  0  0  1  0  0  0  0  0999 V2000
    0.0000   -0.0000   -0.0000 F   0  0  0  0  0  0  0  0  0  0  0  0
   -0.0119    1.5098   -0.0000 C   0  0  0  0  0  0  0  0  0  0  0  0
   -1.3196    2.2706   -0.0000 C   0  0  0  0  0  0  0  0  0  0  0  0
    1.2720    2.2825   -0.0000 C   0  0  0  0  0  0  0  0  0  0  0  0
   -2.6272    1.5335   -0.0000 O   0  0  0  0  0  0  0  0  0  0  0  0
   -1.3433    3.7804   -0.0000 C   0  0  0  0  0  0  0  0  0  0  0  0
    1.2601    3.7922   -0.0000 C   0  0  0  0  0  0  0  0  0  0  0  0
    2.6748    1.8426   -0.0000 C   0  0  0  0  0  0  0  0  0  0  0  0
   -2.6391    0.0476   -0.0000 C   0  0  0  0  0  0  0  0  0  0  0  0
   -0.0594    4.5531   -0.0000 C   0  0  0  0  0  0  0  0  0  0  0  0
    2.6629    4.2678   -0.0000 N   0  0  0  0  0  0  0  0  0  0  0  0
    3.5426    3.0671   -0.0000 C   0  0  0  0  0  0  0  0  0  0  0  0
   -1.3433   -0.6776   -0.0000 N   0  0  0  0  0  0  0  0  0  0  0  0
   -3.9468   -0.6895   -0.0000 C   0  0  0  0  0  0  0  0  0  0  0  0
    5.0286    3.0790   -0.0000 C   0  0  0  0  0  0  0  0  0  0  0  0
   -1.3552   -2.1755   -0.0000 C   0  0  0  0  0  0  0  0  0  0  0  0
   -3.9468   -2.1874   -0.0000 N   0  0  0  0  0  0  0  0  0  0  0  0
   -5.3971   -0.2140   -0.0000 C   0  0  0  0  0  0  0  0  0  0  0  0
   -2.6748   -2.9125   -0.0000 N   0  0  0  0  0  0  0  0  0  0  0  0
   -5.3852   -2.6510   -0.0000 C   0  0  0  0  0  0  0  0  0  0  0  0
   -6.2887   -1.4266   -0.0000 C   0  0  0  0  0  0  0  0  0  0  0  0
   -5.8726    1.2245   -0.0000 C   0  0  0  0  0  0  0  0  0  0  0  0
   -7.7985   -1.4266   -0.0000 O   0  0  0  0  0  0  0  0  0  0  0  0
   -8.5593   -0.1189   -0.0000 C   0  0  0  0  0  0  0  0  0  0  0  0
  -10.0691   -0.1189   -0.0000 C   0  0  0  0  0  0  0  0  0  0  0  0
  -10.8299   -1.4028   -0.0000 O   0  0  0  0  0  0  0  0  0  0  0  0
  -10.8299    1.1888   -0.0000 C   0  0  0  0  0  0  0  0  0  0  0  0
  -10.0929   -2.6867   -0.0000 C   0  0  0  0  0  0  0  0  0  0  0  0
   -8.6069   -2.6748   -0.0000 O   0  0  0  0  0  0  0  0  0  0  0  0
  -10.8537   -3.9706   -0.0000 C   0  0  0  0  0  0  0  0  0  0  0  0
  -12.3634   -3.9587   -0.0000 N   0  0  0  0  0  0  0  0  0  0  0  0
  -10.1166   -5.2545   -0.0000 C   0  0  0  0  0  0  0  0  0  0  0  0
  1  2  1  0
  2  3  2  0
  2  4  1  0
  3  5  1  0
  3  6  1  0
  4  7  2  0
  4  8  1  0
  5  9  1  0
  6 10  2  0
  7 11  1  0
  8 12  2  0
  9 13  2  0
  9 14  1  0
 12 15  1  0
 13 16  1  0
 14 17  1  0
 14 18  2  0
 16 19  2  0
 17 20  1  0
 18 21  1  0
 18 22  1  0
 21 23  1  0
 23 24  1  0
 24 25  1  0
 25 26  1  0
 25 27  1  6
 26 28  1  0
 28 29  2  0
 28 30  1  0
 30 31  1  0
 30 32  1  1
  7 10  1  0
 11 12  1  0
 17 19  1  0
 20 21  2  0
M  END
>  <MolRegNo>  (1) 
441028

>  <m>  (1) 
=

>  <Value>  (1) 
24000

>  <Unit>  (1) 
nM

>  <Type>  (1) 
IC50

>  <pValue>  (1) 
4.62

>  <Ligand Efficiency>  (1) 
0

>  <Binding Efficiency>  (1) 
0

>  <Surface Efficiency>  (1) 
0

>  <Assay Index>  (1) 
313089

>  <Assay Category>  (1) 


>  <Assay Organism>  (1) 
Homo sapiens

>  <Target ID>  (1) 
11365

>  <Target Name>  (1) 
Cytochrome P450 2D6

>  <Target Organism>  (1) 
Homo sapiens

>  <Target Description>  (1) 
Target is a single protein chain

>  <Sequence Accession>  (1) 
P10635

>  <Reference>  (1) 
J Med Chem 51 (6), 1976-1980 (2008)

>  <Pubmed ID>  (1) 
18288793

>  <DOI>  (1) 
10.1021/jm7013309

$$$$
