4wnv_ligand_537
     RDKit          2D

 32 36  0  0  0  0  0  0  0  0999 V2000
    0.0000   -0.0000   -0.0000 Cl  0  0  0  0  0  0  0  0  0  0  0  0
    1.4731   -0.2376   -0.0000 C   0  0  0  0  0  0  0  0  0  0  0  0
    2.4234    0.9266   -0.0000 C   0  0  0  0  0  0  0  0  0  0  0  0
    1.9839   -1.6394   -0.0000 C   0  0  0  0  0  0  0  0  0  0  0  0
    3.8846    0.6890   -0.0000 C   0  0  0  0  0  0  0  0  0  0  0  0
    3.4451   -1.8770   -0.0000 C   0  0  0  0  0  0  0  0  0  0  0  0
    5.0369    1.6394   -0.0000 N   0  0  0  0  0  0  0  0  0  0  0  0
    4.3954   -0.7128   -0.0000 C   0  0  0  0  0  0  0  0  0  0  0  0
    6.2843    0.8197   -0.0000 C   0  0  0  0  0  0  0  0  0  0  0  0
    4.9656    3.1599   -0.0000 C   0  0  0  0  0  0  0  0  0  0  0  0
    5.8922   -0.6415   -0.0000 S   0  0  0  0  0  0  0  0  0  0  0  0
    7.6860    1.3543   -0.0000 O   0  0  0  0  0  0  0  0  0  0  0  0
    6.2605    3.9202   -0.0000 C   0  0  0  0  0  0  0  0  0  0  0  0
    7.5554    3.1837   -0.0000 O   0  0  0  0  0  0  0  0  0  0  0  0
    6.2367    5.4408   -0.0000 N   0  0  0  0  0  0  0  0  0  0  0  0
    7.5316    6.2011   -0.0000 C   0  0  0  0  0  0  0  0  0  0  0  0
    4.9181    6.1892   -0.0000 C   0  0  0  0  0  0  0  0  0  0  0  0
    7.5197    7.7098   -0.0000 C   0  0  0  0  0  0  0  0  0  0  0  0
    8.4344    5.0250   -0.0000 C   0  0  0  0  0  0  0  0  0  0  0  0
    4.9062    7.7098   -0.0000 C   0  0  0  0  0  0  0  0  0  0  0  0
    8.8146    8.4701   -0.0000 C   0  0  0  0  0  0  0  0  0  0  0  0
    6.2011    8.4701   -0.0000 C   0  0  0  0  0  0  0  0  0  0  0  0
    9.9075    5.2389   -0.0000 N   0  0  0  0  0  0  0  0  0  0  0  0
   10.1095    7.7336   -0.0000 C   0  0  0  0  0  0  0  0  0  0  0  0
    8.8027    9.9788   -0.0000 C   0  0  0  0  0  0  0  0  0  0  0  0
   10.9291    4.1697   -0.0000 C   0  0  0  0  0  0  0  0  0  0  0  0
   10.6084    6.5812   -0.0000 C   0  0  0  0  0  0  0  0  0  0  0  0
   11.3924    8.4938   -0.0000 C   0  0  0  0  0  0  0  0  0  0  0  0
   10.0857   10.7509   -0.0000 C   0  0  0  0  0  0  0  0  0  0  0  0
   12.2715    4.8350   -0.0000 C   0  0  0  0  0  0  0  0  0  0  0  0
   12.0815    6.3199   -0.0000 C   0  0  0  0  0  0  0  0  0  0  0  0
   11.3806   10.0144   -0.0000 C   0  0  0  0  0  0  0  0  0  0  0  0
  1  2  1  0
  2  3  2  0
  2  4  1  0
  3  5  1  0
  4  6  2  0
  5  7  1  0
  5  8  2  0
  7  9  1  0
  7 10  1  0
  8 11  1  0
  9 12  2  0
 10 13  1  0
 13 14  2  0
 13 15  1  0
 15 16  1  0
 15 17  1  0
 16 18  1  0
 16 19  1  0
 17 20  1  0
 18 21  1  0
 18 22  1  0
 19 23  1  0
 21 24  2  0
 21 25  1  0
 23 26  1  0
 23 27  1  0
 24 28  1  0
 25 29  2  0
 26 30  1  0
 27 31  1  0
 28 32  2  0
  6  8  1  0
  9 11  1  0
 20 22  1  0
 29 32  1  0
 30 31  1  0
M  END
>  <MolRegNo>  (1) 
426429

>  <m>  (1) 
=

>  <Value>  (1) 
1700

>  <Unit>  (1) 
nM

>  <Type>  (1) 
IC50

>  <pValue>  (1) 
5.77

>  <Ligand Efficiency>  (1) 
0

>  <Binding Efficiency>  (1) 
0

>  <Surface Efficiency>  (1) 
0

>  <Assay Index>  (1) 
328211

>  <Assay Category>  (1) 


>  <Assay Organism>  (1) 


>  <Target ID>  (1) 
11365

>  <Target Name>  (1) 
Cytochrome P450 2D6

>  <Target Organism>  (1) 
Homo sapiens

>  <Target Description>  (1) 
Target is a single protein chain

>  <Sequence Accession>  (1) 
P10635

>  <Reference>  (1) 
Bioorg Med Chem Lett 18 (12), 3500-3503 (2008)

>  <Pubmed ID>  (1) 
18502123

>  <DOI>  (1) 
10.1016/j.bmcl.2008.05.027

$$$$
