4wnv_ligand_187
     RDKit          2D

 36 39  0  0  1  0  0  0  0  0999 V2000
    0.0000   -0.0000   -0.0000 S   0  0  0  0  0  0  0  0  0  0  0  0
   -1.5266   -0.0000   -0.0000 O   0  0  0  0  0  0  0  0  0  0  0  0
    1.4902    0.0363   -0.0000 O   0  0  0  0  0  0  0  0  0  0  0  0
   -0.0363    1.5145   -0.0000 N   0  0  0  0  0  0  0  0  0  0  0  0
    0.0000   -1.5024   -0.0000 C   0  0  0  0  0  0  0  0  0  0  0  0
    1.2479    2.3020   -0.0000 C   0  0  0  0  0  0  0  0  0  0  0  0
   -1.3085   -2.2535   -0.0000 C   0  0  0  0  0  0  0  0  0  0  0  0
    1.3085   -2.2172   -0.0000 C   0  0  0  0  0  0  0  0  0  0  0  0
    2.5201    1.5508   -0.0000 C   0  0  0  0  0  0  0  0  0  0  0  0
   -1.3085   -3.7559   -0.0000 C   0  0  0  0  0  0  0  0  0  0  0  0
    1.3206   -3.7075   -0.0000 C   0  0  0  0  0  0  0  0  0  0  0  0
    2.4959    0.0242   -0.0000 C   0  0  0  0  0  0  0  0  0  0  0  0
    3.7923    2.2899   -0.0000 C   0  0  0  0  0  0  0  0  0  0  0  0
    0.0000   -4.4829   -0.0000 C   0  0  0  0  0  0  0  0  0  0  0  0
    3.7801   -0.7148   -0.0000 C   0  0  0  0  0  0  0  0  0  0  0  0
    5.0765    1.5508   -0.0000 C   0  0  0  0  0  0  0  0  0  0  0  0
    5.0644    0.0485   -0.0000 C   0  0  0  0  0  0  0  0  0  0  0  0
    6.3608   -0.6906   -0.0000 C   0  0  0  0  0  0  0  0  0  0  0  0
    7.6330    0.0848   -0.0000 C   0  0  0  0  0  0  0  0  0  0  0  0
    7.6209    1.5993   -0.0000 O   0  0  0  0  0  0  0  0  0  0  0  0
    8.9415   -0.6543   -0.0000 N   0  0  0  0  0  0  0  0  0  0  0  0
   10.2258    0.1090   -0.0000 C   0  0  0  0  0  0  0  0  0  0  0  0
    8.9294   -2.1445   -0.0000 C   0  0  0  0  0  0  0  0  0  0  0  0
   10.2137    1.6235   -0.0000 C   0  0  0  0  0  0  0  0  0  0  0  0
   11.5101   -0.6300   -0.0000 C   0  0  0  0  0  0  0  0  0  0  0  0
   11.4979    2.3747   -0.0000 C   0  0  0  0  0  0  0  0  0  0  0  0
    8.9052    2.3626   -0.0000 C   0  0  0  0  0  0  0  0  0  0  0  0
   12.7943    0.1333   -0.0000 N   0  0  0  0  0  0  0  0  0  0  0  0
   11.4858    3.8892   -0.0000 C   0  0  0  0  0  0  0  0  0  0  0  0
    8.8809    3.8771   -0.0000 C   0  0  0  0  0  0  0  0  0  0  0  0
   14.1513   -0.4604   -0.0000 C   0  0  0  0  0  0  0  0  0  0  0  0
   12.9397    1.6478   -0.0000 C   0  0  0  0  0  0  0  0  0  0  0  0
   10.1773    4.6525   -0.0000 C   0  0  0  0  0  0  0  0  0  0  0  0
   15.1569    0.6664   -0.0000 C   0  0  0  0  0  0  0  0  0  0  0  0
   14.3815    1.9628   -0.0000 C   0  0  0  0  0  0  0  0  0  0  0  0
   16.6351    0.5331   -0.0000 O   0  0  0  0  0  0  0  0  0  0  0  0
  1  2  2  0
  1  3  2  0
  1  4  1  0
  1  5  1  0
  4  6  1  0
  5  7  2  0
  5  8  1  0
  6  9  1  0
  7 10  1  0
  8 11  2  0
  9 12  2  0
  9 13  1  0
 10 14  2  0
 12 15  1  0
 13 16  2  0
 15 17  2  0
 17 18  1  0
 18 19  1  0
 19 20  2  0
 19 21  1  0
 22 21  1  0
 21 23  1  0
 22 24  1  0
 22 25  1  1
 24 26  2  0
 24 27  1  0
 25 28  1  0
 26 29  1  0
 27 30  2  0
 28 31  1  0
 28 32  1  0
 29 33  2  0
 31 34  1  0
 32 35  1  0
 34 36  1  6
 11 14  1  0
 16 17  1  0
 30 33  1  0
 34 35  1  0
M  END
>  <MolRegNo>  (1) 
319257

>  <m>  (1) 
=

>  <Value>  (1) 
4337

>  <Unit>  (1) 
nM

>  <Type>  (1) 
IC50

>  <pValue>  (1) 
5.36

>  <Ligand Efficiency>  (1) 
0

>  <Binding Efficiency>  (1) 
0

>  <Surface Efficiency>  (1) 
0

>  <Assay Index>  (1) 
238842

>  <Assay Category>  (1) 


>  <Assay Organism>  (1) 
Homo sapiens

>  <Target ID>  (1) 
11365

>  <Target Name>  (1) 
Cytochrome P450 2D6

>  <Target Organism>  (1) 
Homo sapiens

>  <Target Description>  (1) 
Target is a single protein chain

>  <Sequence Accession>  (1) 
P10635

>  <Reference>  (1) 
Bioorg Med Chem Lett 15 (10), 2647-2652 (2005)

>  <Pubmed ID>  (1) 
15863335

>  <DOI>  (1) 
10.1016/j.bmcl.2005.03.020

$$$$
