4wnv_ligand_998
     RDKit          2D

 25 27  0  0  0  0  0  0  0  0999 V2000
    0.0000   -0.0000   -0.0000 O   0  0  0  0  0  0  0  0  0  0  0  0
    1.2802    0.7705   -0.0000 C   0  0  0  0  0  0  0  0  0  0  0  0
    0.0000   -1.4817   -0.0000 C   0  0  0  0  0  0  0  0  0  0  0  0
    2.5723    0.0474   -0.0000 N   0  0  0  0  0  0  0  0  0  0  0  0
    1.2565    2.2759   -0.0000 C   0  0  0  0  0  0  0  0  0  0  0  0
    3.8525    0.8179   -0.0000 C   0  0  0  0  0  0  0  0  0  0  0  0
    2.5249    3.0464   -0.0000 N   0  0  0  0  0  0  0  0  0  0  0  0
   -0.0593    3.0109   -0.0000 C   0  0  0  0  0  0  0  0  0  0  0  0
    3.8288    2.3352   -0.0000 C   0  0  0  0  0  0  0  0  0  0  0  0
   -0.0711    4.5163   -0.0000 C   0  0  0  0  0  0  0  0  0  0  0  0
   -1.3632    2.2641   -0.0000 C   0  0  0  0  0  0  0  0  0  0  0  0
   -1.3039    5.4054   -0.0000 C   0  0  0  0  0  0  0  0  0  0  0  0
    1.1380    5.4172   -0.0000 C   0  0  0  0  0  0  0  0  0  0  0  0
   -0.8535    6.8515   -0.0000 C   0  0  0  0  0  0  0  0  0  0  0  0
   -2.7738    5.0972   -0.0000 C   0  0  0  0  0  0  0  0  0  0  0  0
    0.6520    6.8634   -0.0000 C   0  0  0  0  0  0  0  0  0  0  0  0
    2.5486    4.9786   -0.0000 C   0  0  0  0  0  0  0  0  0  0  0  0
   -1.8729    7.9658   -0.0000 C   0  0  0  0  0  0  0  0  0  0  0  0
   -3.7932    6.2114   -0.0000 C   0  0  0  0  0  0  0  0  0  0  0  0
    3.6391    5.9981   -0.0000 C   0  0  0  0  0  0  0  0  0  0  0  0
   -3.3428    7.6576   -0.0000 C   0  0  0  0  0  0  0  0  0  0  0  0
    5.0498    5.5595   -0.0000 N   0  0  0  0  0  0  0  0  0  0  0  0
   -4.3622    8.7719   -0.0000 C   0  0  0  0  0  0  0  0  0  0  0  0
    6.1403    6.5789   -0.0000 C   0  0  0  0  0  0  0  0  0  0  0  0
    5.3580    4.1133   -0.0000 C   0  0  0  0  0  0  0  0  0  0  0  0
  1  2  1  0
  1  3  1  0
  2  4  2  0
  2  5  1  0
  4  6  1  0
  5  7  2  0
  5  8  1  0
  6  9  2  0
  8 10  1  0
  8 11  1  1
 10 12  1  0
 10 13  2  0
 12 14  2  0
 12 15  1  0
 13 16  1  0
 13 17  1  0
 14 18  1  0
 15 19  2  0
 17 20  1  0
 18 21  2  0
 20 22  1  0
 21 23  1  0
 22 24  1  0
 22 25  1  0
  7  9  1  0
 14 16  1  0
 19 21  1  0
M  END
>  <MolRegNo>  (1) 
621167

>  <m>  (1) 
=

>  <Value>  (1) 
11000

>  <Unit>  (1) 
nM

>  <Type>  (1) 
IC50

>  <pValue>  (1) 
4.96

>  <Ligand Efficiency>  (1) 
0

>  <Binding Efficiency>  (1) 
0

>  <Surface Efficiency>  (1) 
0

>  <Assay Index>  (1) 
470598

>  <Assay Category>  (1) 


>  <Assay Organism>  (1) 


>  <Target ID>  (1) 
11365

>  <Target Name>  (1) 
Cytochrome P450 2D6

>  <Target Organism>  (1) 
Homo sapiens

>  <Target Description>  (1) 
Target is a single protein chain

>  <Sequence Accession>  (1) 
P10635

>  <Reference>  (1) 
Bioorg Med Chem Lett 20 (8), 2629-2633 (2010)

>  <Pubmed ID>  (1) 
20227880

>  <DOI>  (1) 
10.1016/j.bmcl.2010.02.055

$$$$
