4wnv_ligand_356
     RDKit          2D

 32 35  0  0  1  0  0  0  0  0999 V2000
    0.0000   -0.0000   -0.0000 F   0  0  0  0  0  0  0  0  0  0  0  0
   -1.3112    0.7560   -0.0000 C   0  0  0  0  0  0  0  0  0  0  0  0
   -2.6225    0.0236   -0.0000 C   0  0  0  0  0  0  0  0  0  0  0  0
   -1.3230    2.2681   -0.0000 C   0  0  0  0  0  0  0  0  0  0  0  0
   -3.9219    0.7797   -0.0000 C   0  0  0  0  0  0  0  0  0  0  0  0
   -2.6225    3.0241   -0.0000 C   0  0  0  0  0  0  0  0  0  0  0  0
   -3.9337    2.2799   -0.0000 C   0  0  0  0  0  0  0  0  0  0  0  0
   -5.2331    3.0359   -0.0000 O   0  0  0  0  0  0  0  0  0  0  0  0
   -6.5326    2.3035   -0.0000 C   0  0  0  0  0  0  0  0  0  0  0  0
   -7.8320    3.0595   -0.0000 C   0  0  0  0  0  0  0  0  0  0  0  0
   -6.5444    0.8151   -0.0000 C   0  0  0  0  0  0  0  0  0  0  0  0
   -9.1314    2.3271   -0.0000 C   0  0  0  0  0  0  0  0  0  0  0  0
   -7.8438    0.0827   -0.0000 C   0  0  0  0  0  0  0  0  0  0  0  0
  -10.4426    3.0832   -0.0000 C   0  0  0  0  0  0  0  0  0  0  0  0
   -9.1550    0.8505   -0.0000 C   0  0  0  0  0  0  0  0  0  0  0  0
  -10.4544    4.5834   -0.0000 O   0  0  0  0  0  0  0  0  0  0  0  0
  -11.7539    2.3508   -0.0000 N   0  0  0  0  0  0  0  0  0  0  0  0
  -10.4426    0.1181   -0.0000 N   0  0  0  0  0  0  0  0  0  0  0  0
  -11.7539    0.8742   -0.0000 C   0  0  0  0  0  0  0  0  0  0  0  0
  -13.0651    3.1068   -0.0000 C   0  0  0  0  0  0  0  0  0  0  0  0
  -13.0533    0.1418   -0.0000 C   0  0  0  0  0  0  0  0  0  0  0  0
  -13.0769    4.6070   -0.0000 C   0  0  0  0  0  0  0  0  0  0  0  0
  -14.3645    0.8978   -0.0000 C   0  0  0  0  0  0  0  0  0  0  0  0
  -13.0651   -1.3349   -0.0000 C   0  0  0  0  0  0  0  0  0  0  0  0
  -11.7893    5.3749   -0.0000 C   0  0  0  0  0  0  0  0  0  0  0  0
  -14.3881    5.3631   -0.0000 C   0  0  0  0  0  0  0  0  0  0  0  0
  -11.8011    6.8751   -0.0000 N   0  0  0  0  0  0  0  0  0  0  0  0
  -14.4000    6.8751   -0.0000 C   0  0  0  0  0  0  0  0  0  0  0  0
  -10.5135    7.6312   -0.0000 C   0  0  0  0  0  0  0  0  0  0  0  0
  -13.1005    7.6430   -0.0000 C   0  0  0  0  0  0  0  0  0  0  0  0
   -9.2377    6.8988   -0.0000 C   0  0  0  0  0  0  0  0  0  0  0  0
  -10.5253    9.1314   -0.0000 C   0  0  0  0  0  0  0  0  0  0  0  0
  1  2  1  0
  2  3  2  0
  2  4  1  0
  3  5  1  0
  4  6  2  0
  5  7  2  0
  7  8  1  0
  8  9  1  0
  9 10  2  0
  9 11  1  0
 10 12  1  0
 11 13  2  0
 12 14  1  0
 12 15  2  0
 14 16  2  0
 14 17  1  0
 15 18  1  0
 17 19  1  0
 17 20  1  0
 19 21  1  0
 22 20  1  1
 21 23  1  0
 21 24  1  0
 22 25  1  0
 22 26  1  0
 25 27  1  0
 26 28  1  0
 27 29  1  0
 27 30  1  0
 29 31  1  0
 29 32  1  0
  6  7  1  0
 13 15  1  0
 18 19  2  0
 28 30  1  0
M  END
>  <MolRegNo>  (1) 
389235

>  <m>  (1) 
=

>  <Value>  (1) 
7200

>  <Unit>  (1) 
nM

>  <Type>  (1) 
IC50

>  <pValue>  (1) 
5.14

>  <Ligand Efficiency>  (1) 
0

>  <Binding Efficiency>  (1) 
0

>  <Surface Efficiency>  (1) 
0

>  <Assay Index>  (1) 
295387

>  <Assay Category>  (1) 


>  <Assay Organism>  (1) 


>  <Target ID>  (1) 
11365

>  <Target Name>  (1) 
Cytochrome P450 2D6

>  <Target Organism>  (1) 
Homo sapiens

>  <Target Description>  (1) 
Target is a single protein chain

>  <Sequence Accession>  (1) 
P10635

>  <Reference>  (1) 
J Med Chem 50 (21), 5202-5216 (2007)

>  <Pubmed ID>  (1) 
17887659

>  <DOI>  (1) 
10.1021/jm070071+

$$$$
