4wnv_ligand_1018
     RDKit          2D

 21 23  0  0  0  0  0  0  0  0999 V2000
    0.0000   -0.0000   -0.0000 S   0  0  0  0  0  0  0  0  0  0  0  0
   -1.4542   -0.4529   -0.0000 C   0  0  0  0  0  0  0  0  0  0  0  0
    0.8820   -1.2039   -0.0000 C   0  0  0  0  0  0  0  0  0  0  0  0
   -1.4661   -1.9548   -0.0000 C   0  0  0  0  0  0  0  0  0  0  0  0
   -2.7653    0.2980   -0.0000 C   0  0  0  0  0  0  0  0  0  0  0  0
   -0.0119   -2.4197   -0.0000 C   0  0  0  0  0  0  0  0  0  0  0  0
    2.3720   -1.1800   -0.0000 C   0  0  0  0  0  0  0  0  0  0  0  0
   -2.7773   -2.6938   -0.0000 C   0  0  0  0  0  0  0  0  0  0  0  0
   -4.0765   -0.4410   -0.0000 C   0  0  0  0  0  0  0  0  0  0  0  0
    0.4529   -3.8262   -0.0000 C   0  0  0  0  0  0  0  0  0  0  0  0
    3.1229   -2.4674   -0.0000 C   0  0  0  0  0  0  0  0  0  0  0  0
   -4.0884   -1.9310   -0.0000 C   0  0  0  0  0  0  0  0  0  0  0  0
   -0.5602   -4.9347   -0.0000 N   0  0  0  0  0  0  0  0  0  0  0  0
    1.9071   -4.1123   -0.0000 C   0  0  0  0  0  0  0  0  0  0  0  0
    4.6129   -2.4435   -0.0000 N   0  0  0  0  0  0  0  0  0  0  0  0
   -0.2503   -6.3889   -0.0000 C   0  0  0  0  0  0  0  0  0  0  0  0
   -2.0621   -4.7678   -0.0000 C   0  0  0  0  0  0  0  0  0  0  0  0
    5.3519   -3.7308   -0.0000 C   0  0  0  0  0  0  0  0  0  0  0  0
    5.3400   -1.1324   -0.0000 C   0  0  0  0  0  0  0  0  0  0  0  0
   -1.5615   -7.1398   -0.0000 N   0  0  0  0  0  0  0  0  0  0  0  0
   -2.6700   -6.1267   -0.0000 C   0  0  0  0  0  0  0  0  0  0  0  0
  1  2  1  0
  1  3  1  0
  2  4  2  0
  2  5  1  0
  3  6  2  0
  3  7  1  0
  4  8  1  0
  5  9  2  0
  6 10  1  0
  7 11  1  0
  8 12  2  0
 10 13  1  0
 10 14  1  0
 11 15  1  0
 13 16  1  0
 13 17  1  0
 15 18  1  0
 15 19  1  0
 16 20  2  0
 17 21  2  0
  4  6  1  0
  9 12  1  0
 20 21  1  0
M  END
>  <MolRegNo>  (1) 
620235

>  <m>  (1) 
=

>  <Value>  (1) 
8012000

>  <Unit>  (1) 
nM

>  <Type>  (1) 
IC50

>  <pValue>  (1) 
0

>  <Ligand Efficiency>  (1) 
0

>  <Binding Efficiency>  (1) 
0

>  <Surface Efficiency>  (1) 
0

>  <Assay Index>  (1) 
469728

>  <Assay Category>  (1) 


>  <Assay Organism>  (1) 


>  <Target ID>  (1) 
11365

>  <Target Name>  (1) 
Cytochrome P450 2D6

>  <Target Organism>  (1) 
Homo sapiens

>  <Target Description>  (1) 
Target is a single protein chain

>  <Sequence Accession>  (1) 
P10635

>  <Reference>  (1) 
Bioorg Med Chem Lett 20 (7), 2316-2320 (2010)

>  <Pubmed ID>  (1) 
20188547

>  <DOI>  (1) 
10.1016/j.bmcl.2010.01.134

$$$$
