4wnv_ligand_788
     RDKit          2D

 26 29  0  0  0  0  0  0  0  0999 V2000
    0.0000   -0.0000   -0.0000 O   0  0  0  0  0  0  0  0  0  0  0  0
   -1.0512    1.0854   -0.0000 C   0  0  0  0  0  0  0  0  0  0  0  0
   -2.5137    0.7427   -0.0000 N   0  0  0  0  0  0  0  0  0  0  0  0
   -0.6513    2.5365   -0.0000 C   0  0  0  0  0  0  0  0  0  0  0  0
   -2.9364   -0.6855   -0.0000 C   0  0  0  0  0  0  0  0  0  0  0  0
   -3.5648    1.8281   -0.0000 C   0  0  0  0  0  0  0  0  0  0  0  0
    0.7884    2.9021   -0.0000 C   0  0  0  0  0  0  0  0  0  0  0  0
   -1.7024    3.6220   -0.0000 C   0  0  0  0  0  0  0  0  0  0  0  0
    1.1883    4.3532   -0.0000 C   0  0  0  0  0  0  0  0  0  0  0  0
   -1.3025    5.0730   -0.0000 C   0  0  0  0  0  0  0  0  0  0  0  0
    0.1371    5.4387   -0.0000 C   0  0  0  0  0  0  0  0  0  0  0  0
    0.5370    6.8897   -0.0000 C   0  0  0  0  0  0  0  0  0  0  0  0
   -0.5142    7.9752   -0.0000 C   0  0  0  0  0  0  0  0  0  0  0  0
    1.9767    7.2554   -0.0000 C   0  0  0  0  0  0  0  0  0  0  0  0
   -0.1143    9.4263   -0.0000 C   0  0  0  0  0  0  0  0  0  0  0  0
   -1.9767    7.6324   -0.0000 C   0  0  0  0  0  0  0  0  0  0  0  0
    2.3766    8.7064   -0.0000 C   0  0  0  0  0  0  0  0  0  0  0  0
    1.3254    9.7919   -0.0000 O   0  0  0  0  0  0  0  0  0  0  0  0
   -1.1654   10.5117   -0.0000 C   0  0  0  0  0  0  0  0  0  0  0  0
   -3.0278    8.7179   -0.0000 C   0  0  0  0  0  0  0  0  0  0  0  0
    2.7765   10.1575   -0.0000 C   0  0  0  0  0  0  0  0  0  0  0  0
    3.4049    7.6438   -0.0000 C   0  0  0  0  0  0  0  0  0  0  0  0
   -2.6279   10.1689   -0.0000 C   0  0  0  0  0  0  0  0  0  0  0  0
    4.2161   10.5231   -0.0000 C   0  0  0  0  0  0  0  0  0  0  0  0
    4.8445    8.0095   -0.0000 C   0  0  0  0  0  0  0  0  0  0  0  0
    5.2444    9.4605   -0.0000 N   0  0  0  0  0  0  0  0  0  0  0  0
  1  2  2  0
  2  3  1  0
  2  4  1  0
  3  5  1  0
  3  6  1  0
  4  7  2  0
  4  8  1  0
  7  9  1  0
  8 10  2  0
  9 11  2  0
 11 12  1  0
 12 13  1  0
 12 14  2  0
 13 15  2  0
 13 16  1  0
 14 17  1  0
 15 18  1  0
 15 19  1  0
 16 20  2  0
 17 21  1  0
 17 22  1  0
 19 23  2  0
 21 24  1  0
 22 25  1  0
 24 26  1  0
 10 11  1  0
 17 18  1  0
 20 23  1  0
 25 26  1  0
M  END
>  <MolRegNo>  (1) 
559119

>  <m>  (1) 
=

>  <Value>  (1) 
2800

>  <Unit>  (1) 
nM

>  <Type>  (1) 
IC50

>  <pValue>  (1) 
5.55

>  <Ligand Efficiency>  (1) 
0

>  <Binding Efficiency>  (1) 
0

>  <Surface Efficiency>  (1) 
0

>  <Assay Index>  (1) 
428577

>  <Assay Category>  (1) 


>  <Assay Organism>  (1) 
Homo sapiens

>  <Target ID>  (1) 
11365

>  <Target Name>  (1) 
Cytochrome P450 2D6

>  <Target Organism>  (1) 
Homo sapiens

>  <Target Description>  (1) 
Target is a single protein chain

>  <Sequence Accession>  (1) 
P10635

>  <Reference>  (1) 
J Med Chem 52 (18), 5685-5702 (2009)

>  <Pubmed ID>  (1) 
19694468

>  <DOI>  (1) 
10.1021/jm900773n

$$$$
