4wnv_ligand_890
     RDKit          2D

 25 28  0  0  0  0  0  0  0  0999 V2000
    0.0000   -0.0000   -0.0000 Cl  0  0  0  0  0  0  0  0  0  0  0  0
    1.2834    0.7724   -0.0000 C   0  0  0  0  0  0  0  0  0  0  0  0
    2.5786    0.0356   -0.0000 C   0  0  0  0  0  0  0  0  0  0  0  0
    1.2715    2.2934   -0.0000 C   0  0  0  0  0  0  0  0  0  0  0  0
    3.8739    0.7962   -0.0000 C   0  0  0  0  0  0  0  0  0  0  0  0
    2.5667   -1.4616   -0.0000 C   0  0  0  0  0  0  0  0  0  0  0  0
    2.5667    3.0658   -0.0000 C   0  0  0  0  0  0  0  0  0  0  0  0
    3.8620    2.3172   -0.0000 C   0  0  0  0  0  0  0  0  0  0  0  0
    3.8620   -2.2102   -0.0000 C   0  0  0  0  0  0  0  0  0  0  0  0
    1.2477   -2.2102   -0.0000 C   0  0  0  0  0  0  0  0  0  0  0  0
    3.8501   -3.7075   -0.0000 C   0  0  0  0  0  0  0  0  0  0  0  0
    5.2879   -1.7349   -0.0000 C   0  0  0  0  0  0  0  0  0  0  0  0
    1.2358   -3.7075   -0.0000 C   0  0  0  0  0  0  0  0  0  0  0  0
    5.2761   -4.1591   -0.0000 S   0  0  0  0  0  0  0  0  0  0  0  0
    2.5311   -4.4324   -0.0000 N   0  0  0  0  0  0  0  0  0  0  0  0
    5.8821   -0.3565   -0.0000 N   0  0  0  0  0  0  0  0  0  0  0  0
    6.1554   -2.9351   -0.0000 C   0  0  0  0  0  0  0  0  0  0  0  0
   -0.0832   -4.4442   -0.0000 O   0  0  0  0  0  0  0  0  0  0  0  0
    7.3556   -0.1782   -0.0000 C   0  0  0  0  0  0  0  0  0  0  0  0
    7.6289   -2.7687   -0.0000 C   0  0  0  0  0  0  0  0  0  0  0  0
    7.9616    1.2121   -0.0000 N   0  0  0  0  0  0  0  0  0  0  0  0
    8.2349   -1.3784   -0.0000 C   0  0  0  0  0  0  0  0  0  0  0  0
    8.4964   -3.9689   -0.0000 C   0  0  0  0  0  0  0  0  0  0  0  0
    9.6134   -0.7843   -0.0000 C   0  0  0  0  0  0  0  0  0  0  0  0
   10.9918   -0.1901   -0.0000 N   0  0  0  0  0  0  0  0  0  0  0  0
  1  2  1  0
  2  3  2  0
  2  4  1  0
  3  5  1  0
  3  6  1  0
  4  7  2  0
  5  8  2  0
  6  9  1  0
  6 10  1  0
  9 11  2  0
  9 12  1  0
 10 13  1  0
 11 14  1  0
 11 15  1  0
 12 16  2  0
 12 17  1  0
 13 18  2  0
 16 19  1  0
 17 20  2  0
 19 21  1  0
 19 22  2  0
 20 23  1  0
 22 24  1  0
 24 25  3  0
  7  8  1  0
 13 15  1  0
 14 17  1  0
 20 22  1  0
M  END
>  <MolRegNo>  (1) 
578406

>  <m>  (1) 
=

>  <Value>  (1) 
10000

>  <Unit>  (1) 
nM

>  <Type>  (1) 
IC50

>  <pValue>  (1) 
5

>  <Ligand Efficiency>  (1) 
0

>  <Binding Efficiency>  (1) 
0

>  <Surface Efficiency>  (1) 
0

>  <Assay Index>  (1) 
445664

>  <Assay Category>  (1) 


>  <Assay Organism>  (1) 


>  <Target ID>  (1) 
11365

>  <Target Name>  (1) 
Cytochrome P450 2D6

>  <Target Organism>  (1) 
Homo sapiens

>  <Target Description>  (1) 
Target is a single protein chain

>  <Sequence Accession>  (1) 
P10635

>  <Reference>  (1) 
Bioorg Med Chem Lett 19 (17), 4916-4919 (2009)

>  <Pubmed ID>  (1) 
19664922

>  <DOI>  (1) 
10.1016/j.bmcl.2009.07.100

$$$$
