4wnv_ligand_333
     RDKit          2D

 34 38  0  0  0  0  0  0  0  0999 V2000
    0.0000   -0.0000   -0.0000 O   0  0  0  0  0  0  0  0  0  0  0  0
    1.3154    0.7844   -0.0000 C   0  0  0  0  0  0  0  0  0  0  0  0
    0.0000   -1.5206   -0.0000 C   0  0  0  0  0  0  0  0  0  0  0  0
    1.3034    2.3292   -0.0000 C   0  0  0  0  0  0  0  0  0  0  0  0
    2.6309    0.0362   -0.0000 C   0  0  0  0  0  0  0  0  0  0  0  0
   -1.3396   -2.2809   -0.0000 C   0  0  0  0  0  0  0  0  0  0  0  0
    2.6188    3.1136   -0.0000 C   0  0  0  0  0  0  0  0  0  0  0  0
    3.9463    0.8206   -0.0000 C   0  0  0  0  0  0  0  0  0  0  0  0
   -1.3396   -3.8015   -0.0000 N   0  0  0  0  0  0  0  0  0  0  0  0
    3.9343    2.3654   -0.0000 C   0  0  0  0  0  0  0  0  0  0  0  0
   -2.5826   -4.6704   -0.0000 C   0  0  0  0  0  0  0  0  0  0  0  0
   -0.1086   -4.6583   -0.0000 C   0  0  0  0  0  0  0  0  0  0  0  0
    5.2497    3.1498   -0.0000 N   0  0  0  0  0  0  0  0  0  0  0  0
   -2.1119   -6.1065   -0.0000 C   0  0  0  0  0  0  0  0  0  0  0  0
   -0.5793   -6.1065   -0.0000 C   0  0  0  0  0  0  0  0  0  0  0  0
    6.5651    2.4016   -0.0000 C   0  0  0  0  0  0  0  0  0  0  0  0
    6.5531    0.8810   -0.0000 N   0  0  0  0  0  0  0  0  0  0  0  0
    7.8806    3.1740   -0.0000 N   0  0  0  0  0  0  0  0  0  0  0  0
    7.8685    0.1328   -0.0000 N   0  0  0  0  0  0  0  0  0  0  0  0
    9.1960    2.4257   -0.0000 C   0  0  0  0  0  0  0  0  0  0  0  0
    9.1839    0.9051   -0.0000 C   0  0  0  0  0  0  0  0  0  0  0  0
   10.5115    3.1981   -0.0000 C   0  0  0  0  0  0  0  0  0  0  0  0
   10.4994    0.1569   -0.0000 C   0  0  0  0  0  0  0  0  0  0  0  0
   11.8269    2.4499   -0.0000 C   0  0  0  0  0  0  0  0  0  0  0  0
   10.4994    4.4411   -0.0000 C   0  0  0  0  0  0  0  0  0  0  0  0
   11.8148    0.9293   -0.0000 C   0  0  0  0  0  0  0  0  0  0  0  0
   13.1303    0.1810   -0.0000 C   0  0  0  0  0  0  0  0  0  0  0  0
   13.1182   -1.3396   -0.0000 C   0  0  0  0  0  0  0  0  0  0  0  0
   14.4457    0.9534   -0.0000 C   0  0  0  0  0  0  0  0  0  0  0  0
   14.4336   -2.0999   -0.0000 C   0  0  0  0  0  0  0  0  0  0  0  0
   12.0441   -1.9430   -0.0000 C   0  0  0  0  0  0  0  0  0  0  0  0
   15.7611    0.1931   -0.0000 C   0  0  0  0  0  0  0  0  0  0  0  0
   14.4336    2.1964   -0.0000 C   0  0  0  0  0  0  0  0  0  0  0  0
   15.7491   -1.3275   -0.0000 C   0  0  0  0  0  0  0  0  0  0  0  0
  1  2  1  0
  1  3  1  0
  2  4  2  0
  2  5  1  0
  3  6  1  0
  4  7  1  0
  5  8  2  0
  6  9  1  0
  7 10  2  0
  9 11  1  0
  9 12  1  0
 10 13  1  0
 11 14  1  0
 12 15  1  0
 13 16  1  0
 16 17  2  0
 16 18  1  0
 17 19  1  0
 18 20  2  0
 19 21  2  0
 20 22  1  0
 21 23  1  0
 22 24  2  0
 22 25  1  0
 23 26  2  0
 26 27  1  0
 27 28  2  0
 27 29  1  0
 28 30  1  0
 28 31  1  0
 29 32  2  0
 29 33  1  0
 30 34  2  0
  8 10  1  0
 14 15  1  0
 20 21  1  0
 24 26  1  0
 32 34  1  0
M  END
>  <MolRegNo>  (1) 
367769

>  <m>  (1) 
=

>  <Value>  (1) 
25000

>  <Unit>  (1) 
nM

>  <Type>  (1) 
IC50

>  <pValue>  (1) 
4.6

>  <Ligand Efficiency>  (1) 
0

>  <Binding Efficiency>  (1) 
0

>  <Surface Efficiency>  (1) 
0

>  <Assay Index>  (1) 
286641

>  <Assay Category>  (1) 


>  <Assay Organism>  (1) 


>  <Target ID>  (1) 
11365

>  <Target Name>  (1) 
Cytochrome P450 2D6

>  <Target Organism>  (1) 
Homo sapiens

>  <Target Description>  (1) 
Target is a single protein chain

>  <Sequence Accession>  (1) 
P10635

>  <Reference>  (1) 
Bioorg Med Chem Lett 17 (3), 602-608 (2007)

>  <Pubmed ID>  (1) 
17113292

>  <DOI>  (1) 
10.1016/j.bmcl.2006.11.006

$$$$
