4wnv_ligand_491
     RDKit          2D

 39 43  0  0  1  0  0  0  0  0999 V2000
    0.0000   -0.0000   -0.0000 S   0  0  0  0  0  0  0  0  0  0  0  0
    0.6029   -1.3713   -0.0000 C   0  0  0  0  0  0  0  0  0  0  0  0
    1.0994    1.0167   -0.0000 C   0  0  0  0  0  0  0  0  0  0  0  0
    2.0806   -1.1940   -0.0000 N   0  0  0  0  0  0  0  0  0  0  0  0
   -0.1655   -2.6599   -0.0000 C   0  0  0  0  0  0  0  0  0  0  0  0
    2.3880    0.2719   -0.0000 C   0  0  0  0  0  0  0  0  0  0  0  0
   -1.6787   -2.6480   -0.0000 C   0  0  0  0  0  0  0  0  0  0  0  0
    0.5674   -3.9602   -0.0000 C   0  0  0  0  0  0  0  0  0  0  0  0
   -2.4352   -3.9366   -0.0000 C   0  0  0  0  0  0  0  0  0  0  0  0
   -0.2010   -5.2488   -0.0000 C   0  0  0  0  0  0  0  0  0  0  0  0
   -3.9484   -3.9129   -0.0000 N   0  0  0  0  0  0  0  0  0  0  0  0
   -1.7141   -5.2251   -0.0000 C   0  0  0  0  0  0  0  0  0  0  0  0
    0.5320   -6.5373   -0.0000 C   0  0  0  0  0  0  0  0  0  0  0  0
   -4.7168   -5.1897   -0.0000 C   0  0  0  0  0  0  0  0  0  0  0  0
   -0.0946   -7.8850   -0.0000 S   0  0  0  0  0  0  0  0  0  0  0  0
    2.0097   -6.6910   -0.0000 N   0  0  0  0  0  0  0  0  0  0  0  0
   -3.9839   -6.4782   -0.0000 O   0  0  0  0  0  0  0  0  0  0  0  0
   -6.2300   -5.1660   -0.0000 N   0  0  0  0  0  0  0  0  0  0  0  0
    1.0048   -8.8780   -0.0000 C   0  0  0  0  0  0  0  0  0  0  0  0
    2.3052   -8.1451   -0.0000 C   0  0  0  0  0  0  0  0  0  0  0  0
   -6.9984   -6.4546   -0.0000 C   0  0  0  0  0  0  0  0  0  0  0  0
   -8.5115   -6.4309   -0.0000 C   0  0  0  0  0  0  0  0  0  0  0  0
   -6.2654   -7.7431   -0.0000 C   0  0  0  0  0  0  0  0  0  0  0  0
   -9.2681   -5.1187   -0.0000 C   0  0  0  0  0  0  0  0  0  0  0  0
   -8.5234   -3.8184   -0.0000 O   0  0  0  0  0  0  0  0  0  0  0  0
  -10.7813   -5.0951   -0.0000 N   0  0  0  0  0  0  0  0  0  0  0  0
  -11.5497   -6.3718   -0.0000 C   0  0  0  0  0  0  0  0  0  0  0  0
  -11.5379   -3.7829   -0.0000 C   0  0  0  0  0  0  0  0  0  0  0  0
  -13.0628   -6.3600   -0.0000 C   0  0  0  0  0  0  0  0  0  0  0  0
  -13.0510   -3.7593   -0.0000 C   0  0  0  0  0  0  0  0  0  0  0  0
  -13.8312   -5.0478   -0.0000 C   0  0  0  0  0  0  0  0  0  0  0  0
  -13.8312   -7.6486   -0.0000 C   0  0  0  0  0  0  0  0  0  0  0  0
  -15.3444   -7.6367   -0.0000 C   0  0  0  0  0  0  0  0  0  0  0  0
  -16.1128   -8.9253   -0.0000 C   0  0  0  0  0  0  0  0  0  0  0  0
  -16.1010   -6.3364   -0.0000 C   0  0  0  0  0  0  0  0  0  0  0  0
  -17.6260   -8.9016   -0.0000 C   0  0  0  0  0  0  0  0  0  0  0  0
  -17.6023   -6.3245   -0.0000 C   0  0  0  0  0  0  0  0  0  0  0  0
  -18.3826   -7.5895   -0.0000 C   0  0  0  0  0  0  0  0  0  0  0  0
  -19.8957   -7.5658   -0.0000 F   0  0  0  0  0  0  0  0  0  0  0  0
  1  2  1  0
  1  3  1  0
  2  4  2  0
  2  5  1  0
  3  6  2  0
  5  7  2  0
  5  8  1  0
  7  9  1  0
  8 10  2  0
  9 11  1  0
  9 12  2  0
 10 13  1  0
 11 14  1  0
 13 15  1  0
 13 16  2  0
 14 17  2  0
 14 18  1  0
 15 19  1  0
 16 20  1  0
 21 18  1  0
 21 22  1  0
 21 23  1  6
 22 24  1  0
 24 25  1  6
 24 26  1  0
 26 27  1  0
 26 28  1  0
 27 29  1  0
 28 30  1  0
 29 31  1  0
 29 32  1  6
 32 33  1  0
 33 34  2  0
 33 35  1  0
 34 36  1  0
 35 37  2  0
 36 38  2  0
 38 39  1  0
  4  6  1  0
 10 12  1  0
 19 20  2  0
 30 31  1  0
 37 38  1  0
M  END
>  <MolRegNo>  (1) 
437926

>  <m>  (1) 
=

>  <Value>  (1) 
800

>  <Unit>  (1) 
nM

>  <Type>  (1) 
IC50

>  <pValue>  (1) 
6.1

>  <Ligand Efficiency>  (1) 
0

>  <Binding Efficiency>  (1) 
0

>  <Surface Efficiency>  (1) 
0

>  <Assay Index>  (1) 
314783

>  <Assay Category>  (1) 


>  <Assay Organism>  (1) 


>  <Target ID>  (1) 
11365

>  <Target Name>  (1) 
Cytochrome P450 2D6

>  <Target Organism>  (1) 
Homo sapiens

>  <Target Description>  (1) 
Target is a single protein chain

>  <Sequence Accession>  (1) 
P10635

>  <Reference>  (1) 
Bioorg Med Chem Lett 18 (2), 576-585 (2008)

>  <Pubmed ID>  (1) 
18096386

>  <DOI>  (1) 
10.1016/j.bmcl.2007.11.067

$$$$
