4wnv_ligand_126
     RDKit          2D

 31 34  0  0  0  0  0  0  0  0999 V2000
    0.0000   -0.0000   -0.0000 O   0  0  0  0  0  0  0  0  0  0  0  0
   -0.0118   -1.4907   -0.0000 C   0  0  0  0  0  0  0  0  0  0  0  0
    1.2896    0.7572   -0.0000 C   0  0  0  0  0  0  0  0  0  0  0  0
   -1.3251   -2.2479   -0.0000 C   0  0  0  0  0  0  0  0  0  0  0  0
    1.2896   -2.2243   -0.0000 C   0  0  0  0  0  0  0  0  0  0  0  0
    2.5792    0.0237   -0.0000 C   0  0  0  0  0  0  0  0  0  0  0  0
   -2.6384   -1.4907   -0.0000 C   0  0  0  0  0  0  0  0  0  0  0  0
   -1.3369   -3.7387   -0.0000 C   0  0  0  0  0  0  0  0  0  0  0  0
    1.2778   -3.7150   -0.0000 C   0  0  0  0  0  0  0  0  0  0  0  0
    2.5555   -1.4671   -0.0000 C   0  0  0  0  0  0  0  0  0  0  0  0
    2.5674    1.5381   -0.0000 O   0  0  0  0  0  0  0  0  0  0  0  0
    3.8688    0.7927   -0.0000 C   0  0  0  0  0  0  0  0  0  0  0  0
   -3.9516   -0.7099   -0.0000 N   0  0  0  0  0  0  0  0  0  0  0  0
   -0.0473   -4.4722   -0.0000 C   0  0  0  0  0  0  0  0  0  0  0  0
    2.5674   -4.4604   -0.0000 C   0  0  0  0  0  0  0  0  0  0  0  0
    3.8570   -2.2006   -0.0000 C   0  0  0  0  0  0  0  0  0  0  0  0
    5.1584    0.0473   -0.0000 N   0  0  0  0  0  0  0  0  0  0  0  0
    3.8570   -3.7032   -0.0000 C   0  0  0  0  0  0  0  0  0  0  0  0
    6.4480    0.8282   -0.0000 C   0  0  0  0  0  0  0  0  0  0  0  0
    7.8914    1.2304   -0.0000 C   0  0  0  0  0  0  0  0  0  0  0  0
    7.7376    0.0828   -0.0000 C   0  0  0  0  0  0  0  0  0  0  0  0
    6.8266    2.2953   -0.0000 C   0  0  0  0  0  0  0  0  0  0  0  0
    9.3348    0.8518   -0.0000 C   0  0  0  0  0  0  0  0  0  0  0  0
   10.5298    1.7510   -0.0000 C   0  0  0  0  0  0  0  0  0  0  0  0
    9.7726   -0.5679   -0.0000 C   0  0  0  0  0  0  0  0  0  0  0  0
   11.7366    0.8755   -0.0000 C   0  0  0  0  0  0  0  0  0  0  0  0
   10.6717    3.2654   -0.0000 C   0  0  0  0  0  0  0  0  0  0  0  0
   11.2633   -0.5561   -0.0000 N   0  0  0  0  0  0  0  0  0  0  0  0
   13.1090    1.5026   -0.0000 C   0  0  0  0  0  0  0  0  0  0  0  0
   12.0323    3.8925   -0.0000 C   0  0  0  0  0  0  0  0  0  0  0  0
   13.2510    3.0170   -0.0000 C   0  0  0  0  0  0  0  0  0  0  0  0
  1  2  1  0
  1  3  1  0
  2  4  2  0
  2  5  1  0
  3  6  1  0
  4  7  1  0
  4  8  1  0
  5  9  2  0
  5 10  1  0
  6 11  1  0
  6 12  1  0
  7 13  3  0
  8 14  2  0
  9 15  1  0
 10 16  2  0
 12 17  1  0
 15 18  2  0
 17 19  1  0
 19 20  1  0
 19 21  1  0
 19 22  1  0
 20 23  1  0
 23 24  1  0
 23 25  2  0
 24 26  2  0
 24 27  1  0
 25 28  1  0
 26 29  1  0
 27 30  2  0
 29 31  2  0
  9 14  1  0
 16 18  1  0
 26 28  1  0
 30 31  1  0
M  END
>  <MolRegNo>  (1) 
301173

>  <m>  (1) 
=

>  <Value>  (1) 
50

>  <Unit>  (1) 
nM

>  <Type>  (1) 
IC50

>  <pValue>  (1) 
7.3

>  <Ligand Efficiency>  (1) 
0

>  <Binding Efficiency>  (1) 
0

>  <Surface Efficiency>  (1) 
0

>  <Assay Index>  (1) 
238811

>  <Assay Category>  (1) 


>  <Assay Organism>  (1) 
Homo sapiens

>  <Target ID>  (1) 
11365

>  <Target Name>  (1) 
Cytochrome P450 2D6

>  <Target Organism>  (1) 
Homo sapiens

>  <Target Description>  (1) 
Target is a single protein chain

>  <Sequence Accession>  (1) 
P10635

>  <Reference>  (1) 
Bioorg Med Chem Lett 15 (17), 3816-3820 (2005)

>  <Pubmed ID>  (1) 
15993593

>  <DOI>  (1) 
10.1016/j.bmcl.2005.06.007

$$$$
