4wnv_ligand_557
     RDKit          2D

 47 53  0  0  0  0  0  0  0  0999 V2000
    0.0000   -0.0000   -0.0000 F   0  0  0  0  0  0  0  0  0  0  0  0
   -0.0238   -1.4865   -0.0000 C   0  0  0  0  0  0  0  0  0  0  0  0
   -1.3319   -2.2119   -0.0000 C   0  0  0  0  0  0  0  0  0  0  0  0
    1.2486   -2.2238   -0.0000 C   0  0  0  0  0  0  0  0  0  0  0  0
   -2.6400   -1.4389   -0.0000 N   0  0  0  0  0  0  0  0  0  0  0  0
   -1.3557   -3.6984   -0.0000 C   0  0  0  0  0  0  0  0  0  0  0  0
    1.2249   -3.7221   -0.0000 C   0  0  0  0  0  0  0  0  0  0  0  0
   -3.9600   -2.1643   -0.0000 C   0  0  0  0  0  0  0  0  0  0  0  0
   -0.0832   -4.4475   -0.0000 C   0  0  0  0  0  0  0  0  0  0  0  0
   -2.6638   -4.4238   -0.0000 C   0  0  0  0  0  0  0  0  0  0  0  0
   -5.2681   -1.3913   -0.0000 O   0  0  0  0  0  0  0  0  0  0  0  0
   -3.9719   -3.6508   -0.0000 N   0  0  0  0  0  0  0  0  0  0  0  0
   -5.2800   -4.3881   -0.0000 C   0  0  0  0  0  0  0  0  0  0  0  0
   -5.3038   -5.8746   -0.0000 C   0  0  0  0  0  0  0  0  0  0  0  0
   -6.5881   -3.6270   -0.0000 C   0  0  0  0  0  0  0  0  0  0  0  0
   -6.6119   -6.6119   -0.0000 C   0  0  0  0  0  0  0  0  0  0  0  0
   -7.9081   -4.3643   -0.0000 C   0  0  0  0  0  0  0  0  0  0  0  0
   -7.9200   -5.8508   -0.0000 N   0  0  0  0  0  0  0  0  0  0  0  0
   -9.2281   -6.5881   -0.0000 C   0  0  0  0  0  0  0  0  0  0  0  0
  -10.5362   -5.8270   -0.0000 O   0  0  0  0  0  0  0  0  0  0  0  0
   -9.2399   -8.0745   -0.0000 N   0  0  0  0  0  0  0  0  0  0  0  0
  -10.5480   -8.8118   -0.0000 C   0  0  0  0  0  0  0  0  0  0  0  0
  -11.8680   -8.0508   -0.0000 C   0  0  0  0  0  0  0  0  0  0  0  0
  -10.5599  -10.2983   -0.0000 C   0  0  0  0  0  0  0  0  0  0  0  0
  -11.8799   -6.5405   -0.0000 O   0  0  0  0  0  0  0  0  0  0  0  0
  -13.1761   -8.7881   -0.0000 N   0  0  0  0  0  0  0  0  0  0  0  0
   -9.2756  -11.0356   -0.0000 C   0  0  0  0  0  0  0  0  0  0  0  0
  -14.4961   -8.0151   -0.0000 C   0  0  0  0  0  0  0  0  0  0  0  0
  -13.1880  -10.2864   -0.0000 C   0  0  0  0  0  0  0  0  0  0  0  0
   -9.2994  -12.5221   -0.0000 C   0  0  0  0  0  0  0  0  0  0  0  0
   -7.9913  -10.2745   -0.0000 C   0  0  0  0  0  0  0  0  0  0  0  0
  -15.8161   -8.7643   -0.0000 C   0  0  0  0  0  0  0  0  0  0  0  0
  -14.5080  -11.0237   -0.0000 C   0  0  0  0  0  0  0  0  0  0  0  0
   -8.0151  -13.2594   -0.0000 C   0  0  0  0  0  0  0  0  0  0  0  0
   -6.7070  -11.0118   -0.0000 C   0  0  0  0  0  0  0  0  0  0  0  0
  -15.8280  -10.2626   -0.0000 C   0  0  0  0  0  0  0  0  0  0  0  0
   -6.7189  -12.4983   -0.0000 C   0  0  0  0  0  0  0  0  0  0  0  0
   -8.0270  -14.7459   -0.0000 C   0  0  0  0  0  0  0  0  0  0  0  0
   -5.2800  -10.5243   -0.0000 C   0  0  0  0  0  0  0  0  0  0  0  0
  -17.1361  -10.9999   -0.0000 N   0  0  0  0  0  0  0  0  0  0  0  0
   -5.2919  -12.9502   -0.0000 N   0  0  0  0  0  0  0  0  0  0  0  0
   -4.4000  -11.7253   -0.0000 N   0  0  0  0  0  0  0  0  0  0  0  0
  -18.4442  -10.2389   -0.0000 C   0  0  0  0  0  0  0  0  0  0  0  0
  -17.1480  -12.4864   -0.0000 C   0  0  0  0  0  0  0  0  0  0  0  0
  -19.7523  -10.9762   -0.0000 C   0  0  0  0  0  0  0  0  0  0  0  0
  -18.4680  -13.2237   -0.0000 C   0  0  0  0  0  0  0  0  0  0  0  0
  -19.7761  -12.4626   -0.0000 C   0  0  0  0  0  0  0  0  0  0  0  0
  1  2  1  0
  2  3  2  0
  2  4  1  0
  3  5  1  0
  3  6  1  0
  4  7  2  0
  5  8  1  0
  6  9  2  0
  6 10  1  0
  8 11  2  0
  8 12  1  0
 12 13  1  0
 13 14  1  0
 13 15  1  0
 14 16  1  0
 15 17  1  0
 16 18  1  0
 18 19  1  0
 19 20  2  0
 19 21  1  0
 22 21  1  0
 22 23  1  0
 22 24  1  1
 23 25  2  0
 23 26  1  0
 24 27  1  0
 26 28  1  0
 26 29  1  0
 27 30  2  0
 27 31  1  0
 28 32  1  0
 29 33  1  0
 30 34  1  0
 31 35  2  0
 32 36  1  0
 34 37  2  0
 34 38  1  0
 35 39  1  0
 36 40  1  0
 37 41  1  0
 39 42  2  0
 40 43  1  0
 40 44  1  0
 43 45  1  0
 44 46  1  0
 45 47  1  0
  7  9  1  0
 10 12  1  0
 17 18  1  0
 33 36  1  0
 35 37  1  0
 41 42  1  0
 46 47  1  0
M  END
>  <MolRegNo>  (1) 
501085

>  <m>  (1) 
=

>  <Value>  (1) 
25000

>  <Unit>  (1) 
nM

>  <Type>  (1) 
IC50

>  <pValue>  (1) 
4.6

>  <Ligand Efficiency>  (1) 
0

>  <Binding Efficiency>  (1) 
0

>  <Surface Efficiency>  (1) 
0

>  <Assay Index>  (1) 
358720

>  <Assay Category>  (1) 


>  <Assay Organism>  (1) 
Homo sapiens

>  <Target ID>  (1) 
11365

>  <Target Name>  (1) 
Cytochrome P450 2D6

>  <Target Organism>  (1) 
Homo sapiens

>  <Target Description>  (1) 
Target is a single protein chain

>  <Sequence Accession>  (1) 
P10635

>  <Reference>  (1) 
J Med Chem 51 (16), 4858-4861 (2008)

>  <Pubmed ID>  (1) 
18665579

>  <DOI>  (1) 
10.1021/jm800546t

$$$$
