4wnv_ligand_862
     RDKit          2D

 31 35  0  0  0  0  0  0  0  0999 V2000
    0.0000   -0.0000   -0.0000 F   0  0  0  0  0  0  0  0  0  0  0  0
   -1.0101    1.1158   -0.0000 C   0  0  0  0  0  0  0  0  0  0  0  0
   -0.5638    2.5486   -0.0000 C   0  0  0  0  0  0  0  0  0  0  0  0
   -2.4782    0.8221   -0.0000 C   0  0  0  0  0  0  0  0  0  0  0  0
   -1.5738    3.6644   -0.0000 C   0  0  0  0  0  0  0  0  0  0  0  0
   -3.4882    1.9379   -0.0000 C   0  0  0  0  0  0  0  0  0  0  0  0
   -3.0419    3.3708   -0.0000 C   0  0  0  0  0  0  0  0  0  0  0  0
   -4.0520    4.4865   -0.0000 C   0  0  0  0  0  0  0  0  0  0  0  0
   -3.6057    5.9194   -0.0000 N   0  0  0  0  0  0  0  0  0  0  0  0
   -4.4983    7.1409   -0.0000 C   0  0  0  0  0  0  0  0  0  0  0  0
   -2.1963    6.3892   -0.0000 C   0  0  0  0  0  0  0  0  0  0  0  0
   -3.6292    8.3623   -0.0000 N   0  0  0  0  0  0  0  0  0  0  0  0
   -6.0016    7.1526   -0.0000 N   0  0  0  0  0  0  0  0  0  0  0  0
   -2.2080    7.8925   -0.0000 C   0  0  0  0  0  0  0  0  0  0  0  0
   -0.9161    5.6493   -0.0000 C   0  0  0  0  0  0  0  0  0  0  0  0
   -6.7650    5.8724   -0.0000 C   0  0  0  0  0  0  0  0  0  0  0  0
   -6.7650    8.4563   -0.0000 C   0  0  0  0  0  0  0  0  0  0  0  0
   -0.9278    8.6560   -0.0000 C   0  0  0  0  0  0  0  0  0  0  0  0
    0.3641    6.4127   -0.0000 C   0  0  0  0  0  0  0  0  0  0  0  0
   -8.2684    5.8842   -0.0000 C   0  0  0  0  0  0  0  0  0  0  0  0
   -8.2684    8.4680   -0.0000 C   0  0  0  0  0  0  0  0  0  0  0  0
    0.3523    7.9160   -0.0000 C   0  0  0  0  0  0  0  0  0  0  0  0
   -9.0318    7.1878   -0.0000 C   0  0  0  0  0  0  0  0  0  0  0  0
  -10.5351    7.1996   -0.0000 N   0  0  0  0  0  0  0  0  0  0  0  0
  -11.2985    8.5033   -0.0000 C   0  0  0  0  0  0  0  0  0  0  0  0
  -11.2985    5.9194   -0.0000 C   0  0  0  0  0  0  0  0  0  0  0  0
  -12.8019    8.5150   -0.0000 C   0  0  0  0  0  0  0  0  0  0  0  0
  -10.5586    9.8069   -0.0000 C   0  0  0  0  0  0  0  0  0  0  0  0
  -13.5653    9.8187   -0.0000 C   0  0  0  0  0  0  0  0  0  0  0  0
  -11.3220   11.1106   -0.0000 C   0  0  0  0  0  0  0  0  0  0  0  0
  -12.8254   11.1224   -0.0000 O   0  0  0  0  0  0  0  0  0  0  0  0
  1  2  1  0
  2  3  2  0
  2  4  1  0
  3  5  1  0
  4  6  2  0
  5  7  2  0
  7  8  1  0
  8  9  1  0
  9 10  1  0
  9 11  1  0
 10 12  2  0
 10 13  1  0
 11 14  2  0
 11 15  1  0
 13 16  1  0
 13 17  1  0
 14 18  1  0
 15 19  2  0
 16 20  1  0
 17 21  1  0
 18 22  2  0
 20 23  1  0
 23 24  1  0
 24 25  1  0
 24 26  1  0
 25 27  1  0
 25 28  1  0
 27 29  1  0
 28 30  1  0
 29 31  1  0
  6  7  1  0
 12 14  1  0
 19 22  1  0
 21 23  1  0
 30 31  1  0
M  END
>  <MolRegNo>  (1) 
559239

>  <m>  (1) 
=

>  <Value>  (1) 
6360

>  <Unit>  (1) 
nM

>  <Type>  (1) 
IC50

>  <pValue>  (1) 
5.2

>  <Ligand Efficiency>  (1) 
0

>  <Binding Efficiency>  (1) 
0

>  <Surface Efficiency>  (1) 
0

>  <Assay Index>  (1) 
429822

>  <Assay Category>  (1) 


>  <Assay Organism>  (1) 


>  <Target ID>  (1) 
11365

>  <Target Name>  (1) 
Cytochrome P450 2D6

>  <Target Organism>  (1) 
Homo sapiens

>  <Target Description>  (1) 
Target is a single protein chain

>  <Sequence Accession>  (1) 
P10635

>  <Reference>  (1) 
Bioorg Med Chem Lett 19 (15), 4380-4384 (2009)

>  <Pubmed ID>  (1) 
19553115

>  <DOI>  (1) 
10.1016/j.bmcl.2009.05.086

$$$$
