4wnv_ligand_459
     RDKit          2D

 40 43  0  0  1  0  0  0  0  0999 V2000
    0.0000   -0.0000   -0.0000 S   0  0  0  0  0  0  0  0  0  0  0  0
    1.2035    0.8818   -0.0000 C   0  0  0  0  0  0  0  0  0  0  0  0
    0.4528   -1.4180   -0.0000 C   0  0  0  0  0  0  0  0  0  0  0  0
    2.4070    0.0238   -0.0000 N   0  0  0  0  0  0  0  0  0  0  0  0
    1.1916    2.3950   -0.0000 N   0  0  0  0  0  0  0  0  0  0  0  0
    1.9423   -1.4060   -0.0000 C   0  0  0  0  0  0  0  0  0  0  0  0
   -0.3336   -2.6810   -0.0000 C   0  0  0  0  0  0  0  0  0  0  0  0
   -0.1192    3.1696   -0.0000 C   0  0  0  0  0  0  0  0  0  0  0  0
    2.8121   -2.5976   -0.0000 C   0  0  0  0  0  0  0  0  0  0  0  0
   -1.8469   -2.6453   -0.0000 O   0  0  0  0  0  0  0  0  0  0  0  0
    0.3813   -3.9798   -0.0000 C   0  0  0  0  0  0  0  0  0  0  0  0
   -1.4299    2.4308   -0.0000 O   0  0  0  0  0  0  0  0  0  0  0  0
   -0.1311    4.6828   -0.0000 N   0  0  0  0  0  0  0  0  0  0  0  0
   -1.4418    5.4335   -0.0000 C   0  0  0  0  0  0  0  0  0  0  0  0
   -1.4537    6.9587   -0.0000 C   0  0  0  0  0  0  0  0  0  0  0  0
   -2.8836    4.9807   -0.0000 C   0  0  0  0  0  0  0  0  0  0  0  0
   -2.8955    7.4354   -0.0000 C   0  0  0  0  0  0  0  0  0  0  0  0
   -0.1549    7.7213   -0.0000 C   0  0  0  0  0  0  0  0  0  0  0  0
   -3.7892    6.2081   -0.0000 N   0  0  0  0  0  0  0  0  0  0  0  0
    1.1320    6.9707   -0.0000 N   0  0  0  0  0  0  0  0  0  0  0  0
   -5.3025    6.2200   -0.0000 C   0  0  0  0  0  0  0  0  0  0  0  0
    2.4189    7.7333   -0.0000 C   0  0  0  0  0  0  0  0  0  0  0  0
    1.1201    5.4693   -0.0000 C   0  0  0  0  0  0  0  0  0  0  0  0
   -6.0651    7.5307   -0.0000 O   0  0  0  0  0  0  0  0  0  0  0  0
   -6.0651    4.9331   -0.0000 O   0  0  0  0  0  0  0  0  0  0  0  0
    3.7058    6.9826   -0.0000 C   0  0  0  0  0  0  0  0  0  0  0  0
    2.4070    4.7305   -0.0000 C   0  0  0  0  0  0  0  0  0  0  0  0
   -7.5784    4.9450   -0.0000 C   0  0  0  0  0  0  0  0  0  0  0  0
    3.6819    5.4931   -0.0000 C   0  0  0  0  0  0  0  0  0  0  0  0
    5.0046    7.7452   -0.0000 C   0  0  0  0  0  0  0  0  0  0  0  0
   -9.0916    4.9569   -0.0000 C   0  0  0  0  0  0  0  0  0  0  0  0
   -7.5903    3.4555   -0.0000 C   0  0  0  0  0  0  0  0  0  0  0  0
   -7.5903    6.4583   -0.0000 C   0  0  0  0  0  0  0  0  0  0  0  0
    6.2915    6.9945   -0.0000 C   0  0  0  0  0  0  0  0  0  0  0  0
    6.2557    5.5050   -0.0000 C   0  0  0  0  0  0  0  0  0  0  0  0
    7.5784    7.7571   -0.0000 C   0  0  0  0  0  0  0  0  0  0  0  0
    7.5426    4.7663   -0.0000 C   0  0  0  0  0  0  0  0  0  0  0  0
    8.8652    7.0064   -0.0000 C   0  0  0  0  0  0  0  0  0  0  0  0
    8.8414    5.5169   -0.0000 C   0  0  0  0  0  0  0  0  0  0  0  0
   10.1283    4.7782   -0.0000 F   0  0  0  0  0  0  0  0  0  0  0  0
  1  2  1  0
  1  3  1  0
  2  4  2  0
  2  5  1  0
  3  6  2  0
  3  7  1  0
  5  8  1  0
  6  9  1  0
  7 10  2  0
  7 11  1  0
  8 12  2  0
  8 13  1  0
 14 13  1  6
 14 15  1  0
 14 16  1  0
 15 17  1  0
 15 18  1  6
 16 19  1  0
 18 20  1  0
 19 21  1  0
 20 22  1  0
 20 23  1  0
 21 24  2  0
 21 25  1  0
 22 26  1  0
 23 27  1  0
 25 28  1  0
 26 29  1  0
 26 30  1  6
 28 31  1  0
 28 32  1  0
 28 33  1  0
 30 34  1  0
 34 35  2  0
 34 36  1  0
 35 37  1  0
 36 38  2  0
 37 39  2  0
 39 40  1  0
  4  6  1  0
 17 19  1  0
 27 29  1  0
 38 39  1  0
M  END
>  <MolRegNo>  (1) 
421474

>  <m>  (1) 
=

>  <Value>  (1) 
1400

>  <Unit>  (1) 
nM

>  <Type>  (1) 
IC50

>  <pValue>  (1) 
5.85

>  <Ligand Efficiency>  (1) 
0

>  <Binding Efficiency>  (1) 
0

>  <Surface Efficiency>  (1) 
0

>  <Assay Index>  (1) 
307824

>  <Assay Category>  (1) 


>  <Assay Organism>  (1) 
Homo sapiens

>  <Target ID>  (1) 
11365

>  <Target Name>  (1) 
Cytochrome P450 2D6

>  <Target Organism>  (1) 
Homo sapiens

>  <Target Description>  (1) 
Target is a single protein chain

>  <Sequence Accession>  (1) 
P10635

>  <Reference>  (1) 
Bioorg Med Chem Lett 17 (11), 2992-2997 (2007)

>  <Pubmed ID>  (1) 
17418570

>  <DOI>  (1) 
10.1016/j.bmcl.2007.03.065

$$$$
