4wnv_ligand_201
     RDKit          2D

 30 33  0  0  0  0  0  0  0  0999 V2000
    0.0000   -0.0000   -0.0000 F   0  0  0  0  0  0  0  0  0  0  0  0
   -0.0128    1.4934   -0.0000 C   0  0  0  0  0  0  0  0  0  0  0  0
   -1.3147    2.2465   -0.0000 C   0  0  0  0  0  0  0  0  0  0  0  0
    1.2764    2.2465   -0.0000 C   0  0  0  0  0  0  0  0  0  0  0  0
   -2.6167    1.5189   -0.0000 C   0  0  0  0  0  0  0  0  0  0  0  0
   -1.3275    3.7399   -0.0000 C   0  0  0  0  0  0  0  0  0  0  0  0
    1.2637    3.7654   -0.0000 C   0  0  0  0  0  0  0  0  0  0  0  0
   -3.9186    2.2848   -0.0000 C   0  0  0  0  0  0  0  0  0  0  0  0
   -2.6294    0.0638   -0.0000 C   0  0  0  0  0  0  0  0  0  0  0  0
   -0.0511    4.5057   -0.0000 C   0  0  0  0  0  0  0  0  0  0  0  0
    2.5401    4.5185   -0.0000 C   0  0  0  0  0  0  0  0  0  0  0  0
   -5.2205    1.5572   -0.0000 C   0  0  0  0  0  0  0  0  0  0  0  0
   -3.9314   -0.6637   -0.0000 C   0  0  0  0  0  0  0  0  0  0  0  0
    3.8165    3.7910   -0.0000 C   0  0  0  0  0  0  0  0  0  0  0  0
    1.1360    5.0929   -0.0000 C   0  0  0  0  0  0  0  0  0  0  0  0
    2.1954    6.1523   -0.0000 C   0  0  0  0  0  0  0  0  0  0  0  0
   -5.2333    0.0893   -0.0000 C   0  0  0  0  0  0  0  0  0  0  0  0
    3.8037    2.3231   -0.0000 O   0  0  0  0  0  0  0  0  0  0  0  0
    5.0929    4.5440   -0.0000 O   0  0  0  0  0  0  0  0  0  0  0  0
   -6.5352   -0.6382   -0.0000 O   0  0  0  0  0  0  0  0  0  0  0  0
   -7.8500    0.1021   -0.0000 C   0  0  0  0  0  0  0  0  0  0  0  0
   -9.1519   -0.6254   -0.0000 C   0  0  0  0  0  0  0  0  0  0  0  0
   -7.8627    1.6210   -0.0000 C   0  0  0  0  0  0  0  0  0  0  0  0
  -10.4538    0.1404   -0.0000 C   0  0  0  0  0  0  0  0  0  0  0  0
   -9.1391    2.3741   -0.0000 C   0  0  0  0  0  0  0  0  0  0  0  0
  -10.4666    1.6338   -0.0000 C   0  0  0  0  0  0  0  0  0  0  0  0
  -11.8962    0.5361   -0.0000 C   0  0  0  0  0  0  0  0  0  0  0  0
  -11.5133   -0.9063   -0.0000 C   0  0  0  0  0  0  0  0  0  0  0  0
   -9.9050    3.6761   -0.0000 C   0  0  0  0  0  0  0  0  0  0  0  0
   -8.1052    3.4463   -0.0000 C   0  0  0  0  0  0  0  0  0  0  0  0
  1  2  1  0
  2  3  2  0
  2  4  1  0
  3  5  1  0
  3  6  1  0
  4  7  2  0
  5  8  2  0
  5  9  1  0
  6 10  2  0
  7 11  1  0
  8 12  1  0
  9 13  2  0
 11 14  1  0
 11 15  1  0
 11 16  1  0
 12 17  2  0
 14 18  2  0
 14 19  1  0
 17 20  1  0
 20 21  1  0
 21 22  1  0
 21 23  1  0
 22 24  1  0
 23 25  1  0
 24 26  1  0
 24 27  1  0
 24 28  1  0
 25 29  1  0
 25 30  1  0
  7 10  1  0
 13 17  1  0
 15 16  1  0
 25 26  1  0
M  END
>  <MolRegNo>  (1) 
328343

>  <m>  (1) 
=

>  <Value>  (1) 
30000

>  <Unit>  (1) 
nM

>  <Type>  (1) 
IC50

>  <pValue>  (1) 
4.52

>  <Ligand Efficiency>  (1) 
0

>  <Binding Efficiency>  (1) 
0

>  <Surface Efficiency>  (1) 
0

>  <Assay Index>  (1) 
252851

>  <Assay Category>  (1) 


>  <Assay Organism>  (1) 
Homo sapiens

>  <Target ID>  (1) 
11365

>  <Target Name>  (1) 
Cytochrome P450 2D6

>  <Target Organism>  (1) 
Homo sapiens

>  <Target Description>  (1) 
Target is a single protein chain

>  <Sequence Accession>  (1) 
P10635

>  <Reference>  (1) 
J Med Chem 48 (18), 5705-5720 (2005)

>  <Pubmed ID>  (1) 
16134939

>  <DOI>  (1) 
10.1021/jm0502541

$$$$
