4wnv_ligand_886
     RDKit          2D

 20 22  0  0  0  0  0  0  0  0999 V2000
    0.0000   -0.0000   -0.0000 S   0  0  0  0  0  0  0  0  0  0  0  0
    1.2092    0.9010   -0.0000 C   0  0  0  0  0  0  0  0  0  0  0  0
   -1.2211    0.9010   -0.0000 C   0  0  0  0  0  0  0  0  0  0  0  0
    2.4895    0.1660   -0.0000 C   0  0  0  0  0  0  0  0  0  0  0  0
    0.7232    2.3473   -0.0000 C   0  0  0  0  0  0  0  0  0  0  0  0
   -2.5488    0.1660   -0.0000 C   0  0  0  0  0  0  0  0  0  0  0  0
   -0.7706    2.3473   -0.0000 C   0  0  0  0  0  0  0  0  0  0  0  0
    3.7699    0.9247   -0.0000 C   0  0  0  0  0  0  0  0  0  0  0  0
    2.4658   -1.3159   -0.0000 C   0  0  0  0  0  0  0  0  0  0  0  0
   -2.5725   -1.3159   -0.0000 C   0  0  0  0  0  0  0  0  0  0  0  0
   -3.8647    0.9484   -0.0000 C   0  0  0  0  0  0  0  0  0  0  0  0
    5.0502    0.1897   -0.0000 C   0  0  0  0  0  0  0  0  0  0  0  0
    3.7462   -2.0509   -0.0000 C   0  0  0  0  0  0  0  0  0  0  0  0
   -3.8884   -2.0509   -0.0000 C   0  0  0  0  0  0  0  0  0  0  0  0
   -5.1806    0.2134   -0.0000 C   0  0  0  0  0  0  0  0  0  0  0  0
    5.0383   -1.3040   -0.0000 C   0  0  0  0  0  0  0  0  0  0  0  0
    6.3424    0.9602   -0.0000 C   0  0  0  0  0  0  0  0  0  0  0  0
   -3.9003   -3.5446   -0.0000 O   0  0  0  0  0  0  0  0  0  0  0  0
   -5.2043   -1.2803   -0.0000 C   0  0  0  0  0  0  0  0  0  0  0  0
    6.3305   -2.0509   -0.0000 O   0  0  0  0  0  0  0  0  0  0  0  0
  1  2  1  0
  1  3  1  0
  2  4  1  0
  2  5  2  0
  3  6  1  0
  3  7  2  0
  4  8  2  0
  4  9  1  0
  6 10  2  0
  6 11  1  0
  8 12  1  0
  9 13  2  0
 10 14  1  0
 11 15  2  0
 12 16  2  0
 12 17  1  0
 14 18  1  0
 14 19  2  0
 16 20  1  0
  5  7  1  0
 13 16  1  0
 15 19  1  0
M  END
>  <MolRegNo>  (1) 
574927

>  <m>  (1) 
=

>  <Value>  (1) 
1500

>  <Unit>  (1) 
nM

>  <Type>  (1) 
IC50

>  <pValue>  (1) 
5.82

>  <Ligand Efficiency>  (1) 
0

>  <Binding Efficiency>  (1) 
0

>  <Surface Efficiency>  (1) 
0

>  <Assay Index>  (1) 
437927

>  <Assay Category>  (1) 


>  <Assay Organism>  (1) 
Homo sapiens

>  <Target ID>  (1) 
11365

>  <Target Name>  (1) 
Cytochrome P450 2D6

>  <Target Organism>  (1) 
Homo sapiens

>  <Target Description>  (1) 
Target is a single protein chain

>  <Sequence Accession>  (1) 
P10635

>  <Reference>  (1) 
J Med Chem 52 (21), 6724-6743 (2009)

>  <Pubmed ID>  (1) 
19831396

>  <DOI>  (1) 
10.1021/jm901195w

$$$$
