4wnv_ligand_294
     RDKit          2D

 42 46  0  0  1  0  0  0  0  0999 V2000
    0.0000   -0.0000   -0.0000 F   0  0  0  0  0  0  0  0  0  0  0  0
    1.2970    0.7497   -0.0000 C   0  0  0  0  0  0  0  0  0  0  0  0
    2.0348   -0.5474   -0.0000 F   0  0  0  0  0  0  0  0  0  0  0  0
    0.5355    2.0705   -0.0000 F   0  0  0  0  0  0  0  0  0  0  0  0
    2.5941    1.5112   -0.0000 C   0  0  0  0  0  0  0  0  0  0  0  0
    2.5822    3.0344   -0.0000 C   0  0  0  0  0  0  0  0  0  0  0  0
    3.8792    0.7735   -0.0000 C   0  0  0  0  0  0  0  0  0  0  0  0
    3.8673    3.7959   -0.0000 C   0  0  0  0  0  0  0  0  0  0  0  0
    5.1763    1.5350   -0.0000 C   0  0  0  0  0  0  0  0  0  0  0  0
    5.1644    3.0582   -0.0000 C   0  0  0  0  0  0  0  0  0  0  0  0
    6.4495    3.8316   -0.0000 C   0  0  0  0  0  0  0  0  0  0  0  0
    7.7346    3.0939   -0.0000 C   0  0  0  0  0  0  0  0  0  0  0  0
    6.4257    5.3428   -0.0000 C   0  0  0  0  0  0  0  0  0  0  0  0
    9.0198    3.8673   -0.0000 C   0  0  0  0  0  0  0  0  0  0  0  0
    7.7108    6.1163   -0.0000 C   0  0  0  0  0  0  0  0  0  0  0  0
    8.9960    5.3904   -0.0000 C   0  0  0  0  0  0  0  0  0  0  0  0
   10.2811    6.1639   -0.0000 C   0  0  0  0  0  0  0  0  0  0  0  0
   10.2573    7.6870   -0.0000 O   0  0  0  0  0  0  0  0  0  0  0  0
   11.5782    5.4261   -0.0000 N   0  0  0  0  0  0  0  0  0  0  0  0
   12.8633    6.1996   -0.0000 C   0  0  0  0  0  0  0  0  0  0  0  0
   11.5782    3.9268   -0.0000 C   0  0  0  0  0  0  0  0  0  0  0  0
   14.2912    5.7950   -0.0000 C   0  0  0  0  0  0  0  0  0  0  0  0
   12.7919    7.7227   -0.0000 C   0  0  0  0  0  0  0  0  0  0  0  0
   15.1242    7.0564   -0.0000 N   0  0  0  0  0  0  0  0  0  0  0  0
   14.1960    8.2463   -0.0000 C   0  0  0  0  0  0  0  0  0  0  0  0
   16.6235    7.1159   -0.0000 C   0  0  0  0  0  0  0  0  0  0  0  0
   17.3256    8.4605   -0.0000 O   0  0  0  0  0  0  0  0  0  0  0  0
   17.4089    5.8426   -0.0000 N   0  0  0  0  0  0  0  0  0  0  0  0
   18.8963    5.8426   -0.0000 C   0  0  0  0  0  0  0  0  0  0  0  0
   16.9091    4.4385   -0.0000 C   0  0  0  0  0  0  0  0  0  0  0  0
   19.3366    4.4147   -0.0000 C   0  0  0  0  0  0  0  0  0  0  0  0
   18.0990    3.5460   -0.0000 C   0  0  0  0  0  0  0  0  0  0  0  0
   20.3956    3.3794   -0.0000 N   0  0  0  0  0  0  0  0  0  0  0  0
   19.6579    2.0705   -0.0000 C   0  0  0  0  0  0  0  0  0  0  0  0
   20.4313    0.7973   -0.0000 C   0  0  0  0  0  0  0  0  0  0  0  0
   19.6817   -0.5117   -0.0000 C   0  0  0  0  0  0  0  0  0  0  0  0
   20.4432   -1.7968   -0.0000 C   0  0  0  0  0  0  0  0  0  0  0  0
   19.6817   -3.0939   -0.0000 C   0  0  0  0  0  0  0  0  0  0  0  0
   21.9307   -1.7611   -0.0000 C   0  0  0  0  0  0  0  0  0  0  0  0
   20.4313   -4.3671   -0.0000 C   0  0  0  0  0  0  0  0  0  0  0  0
   22.6922   -3.0463   -0.0000 C   0  0  0  0  0  0  0  0  0  0  0  0
   21.9307   -4.3433   -0.0000 C   0  0  0  0  0  0  0  0  0  0  0  0
  1  2  1  0
  2  3  1  0
  2  4  1  0
  2  5  1  0
  5  6  2  0
  5  7  1  0
  6  8  1  0
  7  9  2  0
  8 10  2  0
 10 11  1  0
 11 12  2  0
 11 13  1  0
 12 14  1  0
 13 15  2  0
 14 16  2  0
 16 17  1  0
 17 18  2  0
 17 19  1  0
 20 19  1  1
 19 21  1  0
 20 22  1  0
 20 23  1  0
 22 24  1  0
 23 25  1  0
 24 26  1  0
 26 27  2  0
 26 28  1  0
 28 29  1  0
 28 30  1  0
 29 31  1  0
 30 32  1  0
 31 33  1  6
 33 34  1  0
 34 35  1  0
 35 36  1  0
 36 37  1  0
 37 38  2  0
 37 39  1  0
 38 40  1  0
 39 41  2  0
 40 42  2  0
  9 10  1  0
 15 16  1  0
 24 25  1  0
 31 32  1  0
 41 42  1  0
M  END
>  <MolRegNo>  (1) 
356777

>  <m>  (1) 
=

>  <Value>  (1) 
2000

>  <Unit>  (1) 
nM

>  <Type>  (1) 
IC50

>  <pValue>  (1) 
5.7

>  <Ligand Efficiency>  (1) 
0

>  <Binding Efficiency>  (1) 
0

>  <Surface Efficiency>  (1) 
0

>  <Assay Index>  (1) 
268372

>  <Assay Category>  (1) 


>  <Assay Organism>  (1) 
Homo sapiens

>  <Target ID>  (1) 
11365

>  <Target Name>  (1) 
Cytochrome P450 2D6

>  <Target Organism>  (1) 
Homo sapiens

>  <Target Description>  (1) 
Target is a single protein chain

>  <Sequence Accession>  (1) 
P10635

>  <Reference>  (1) 
Bioorg Med Chem Lett 16 (17), 4450-4457 (2006)

>  <Pubmed ID>  (1) 
16814542

>  <DOI>  (1) 
10.1016/j.bmcl.2006.06.045

$$$$
