4wnv_ligand_578
     RDKit          2D

 28 29  0  0  0  0  0  0  0  0999 V2000
    0.0000   -0.0000   -0.0000 O   0  0  0  0  0  0  0  0  0  0  0  0
   -0.0119   -1.4914   -0.0000 C   0  0  0  0  0  0  0  0  0  0  0  0
   -1.3244   -2.2312   -0.0000 C   0  0  0  0  0  0  0  0  0  0  0  0
    1.2767   -2.2312   -0.0000 C   0  0  0  0  0  0  0  0  0  0  0  0
   -2.6368   -1.4676   -0.0000 C   0  0  0  0  0  0  0  0  0  0  0  0
    2.5414   -1.4676   -0.0000 C   0  0  0  0  0  0  0  0  0  0  0  0
   -3.9493   -2.2073   -0.0000 C   0  0  0  0  0  0  0  0  0  0  0  0
    3.8419   -2.2073   -0.0000 C   0  0  0  0  0  0  0  0  0  0  0  0
   -5.2617   -1.4437   -0.0000 C   0  0  0  0  0  0  0  0  0  0  0  0
   -3.9612   -3.6987   -0.0000 C   0  0  0  0  0  0  0  0  0  0  0  0
    5.1305   -1.4437   -0.0000 C   0  0  0  0  0  0  0  0  0  0  0  0
    3.8300   -3.6987   -0.0000 C   0  0  0  0  0  0  0  0  0  0  0  0
   -6.5742   -2.1715   -0.0000 C   0  0  0  0  0  0  0  0  0  0  0  0
   -5.2736   -4.4384   -0.0000 C   0  0  0  0  0  0  0  0  0  0  0  0
    6.4190   -2.1715   -0.0000 C   0  0  0  0  0  0  0  0  0  0  0  0
    5.1185   -4.4384   -0.0000 C   0  0  0  0  0  0  0  0  0  0  0  0
   -7.8747   -1.3960   -0.0000 O   0  0  0  0  0  0  0  0  0  0  0  0
   -6.6219   -3.6629   -0.0000 C   0  0  0  0  0  0  0  0  0  0  0  0
   -5.2856   -5.9299   -0.0000 O   0  0  0  0  0  0  0  0  0  0  0  0
    7.6957   -1.3960   -0.0000 O   0  0  0  0  0  0  0  0  0  0  0  0
    6.4190   -3.6748   -0.0000 C   0  0  0  0  0  0  0  0  0  0  0  0
    5.1066   -5.9299   -0.0000 O   0  0  0  0  0  0  0  0  0  0  0  0
   -9.1990   -2.1118   -0.0000 C   0  0  0  0  0  0  0  0  0  0  0  0
   -7.9463   -4.3907   -0.0000 O   0  0  0  0  0  0  0  0  0  0  0  0
   -6.5980   -6.6696   -0.0000 C   0  0  0  0  0  0  0  0  0  0  0  0
    8.9843   -2.1238   -0.0000 C   0  0  0  0  0  0  0  0  0  0  0  0
    7.7076   -4.4146   -0.0000 O   0  0  0  0  0  0  0  0  0  0  0  0
    3.7942   -6.6696   -0.0000 C   0  0  0  0  0  0  0  0  0  0  0  0
  1  2  2  0
  2  3  1  0
  2  4  1  0
  3  5  2  0
  4  6  2  0
  5  7  1  0
  6  8  1  0
  7  9  2  0
  7 10  1  0
  8 11  2  0
  8 12  1  0
  9 13  1  0
 10 14  2  0
 11 15  1  0
 12 16  2  0
 13 17  1  0
 13 18  2  0
 14 19  1  0
 15 20  1  0
 15 21  2  0
 16 22  1  0
 17 23  1  0
 18 24  1  0
 19 25  1  0
 20 26  1  0
 21 27  1  0
 22 28  1  0
 14 18  1  0
 16 21  1  0
M  END
>  <MolRegNo>  (1) 
478563

>  <m>  (1) 
=

>  <Value>  (1) 
82700

>  <Unit>  (1) 
nM

>  <Type>  (1) 
IC50

>  <pValue>  (1) 
4.08

>  <Ligand Efficiency>  (1) 
0

>  <Binding Efficiency>  (1) 
0

>  <Surface Efficiency>  (1) 
0

>  <Assay Index>  (1) 
346197

>  <Assay Category>  (1) 


>  <Assay Organism>  (1) 
Homo sapiens

>  <Target ID>  (1) 
11365

>  <Target Name>  (1) 
Cytochrome P450 2D6

>  <Target Organism>  (1) 
Homo sapiens

>  <Target Description>  (1) 
Target is a single protein chain

>  <Sequence Accession>  (1) 
P10635

>  <Reference>  (1) 
Eur J Med Chem 43 (8), 1621-1631 (2008)

>  <Pubmed ID>  (1) 
18249473

>  <DOI>  (1) 
10.1016/j.ejmech.2007.10.034

$$$$
