4wnv_ligand_686
     RDKit          2D

 33 37  0  0  0  0  0  0  0  0999 V2000
    0.0000   -0.0000   -0.0000 O   0  0  0  0  0  0  0  0  0  0  0  0
    1.4545   -0.3100   -0.0000 C   0  0  0  0  0  0  0  0  0  0  0  0
    2.4560    0.8107   -0.0000 O   0  0  0  0  0  0  0  0  0  0  0  0
    1.8957   -1.7287   -0.0000 N   0  0  0  0  0  0  0  0  0  0  0  0
    3.9105    0.5007   -0.0000 C   0  0  0  0  0  0  0  0  0  0  0  0
    0.8703   -2.8256   -0.0000 C   0  0  0  0  0  0  0  0  0  0  0  0
    5.3412    0.1192   -0.0000 C   0  0  0  0  0  0  0  0  0  0  0  0
    4.2563    1.9672   -0.0000 C   0  0  0  0  0  0  0  0  0  0  0  0
    3.5409   -0.9538   -0.0000 C   0  0  0  0  0  0  0  0  0  0  0  0
    1.3115   -4.2444   -0.0000 C   0  0  0  0  0  0  0  0  0  0  0  0
    2.7302   -4.7093   -0.0000 N   0  0  0  0  0  0  0  0  0  0  0  0
    0.4054   -5.4485   -0.0000 N   0  0  0  0  0  0  0  0  0  0  0  0
    2.7064   -6.1996   -0.0000 O   0  0  0  0  0  0  0  0  0  0  0  0
    1.2638   -6.6527   -0.0000 C   0  0  0  0  0  0  0  0  0  0  0  0
    0.7869   -8.0595   -0.0000 C   0  0  0  0  0  0  0  0  0  0  0  0
    1.6691   -9.2756   -0.0000 N   0  0  0  0  0  0  0  0  0  0  0  0
   -0.6677   -8.5126   -0.0000 C   0  0  0  0  0  0  0  0  0  0  0  0
    0.7630  -10.4917   -0.0000 N   0  0  0  0  0  0  0  0  0  0  0  0
   -0.6796  -10.0148   -0.0000 C   0  0  0  0  0  0  0  0  0  0  0  0
   -1.9791   -7.7495   -0.0000 C   0  0  0  0  0  0  0  0  0  0  0  0
    1.2161  -11.9105   -0.0000 C   0  0  0  0  0  0  0  0  0  0  0  0
   -1.9910  -10.7540   -0.0000 C   0  0  0  0  0  0  0  0  0  0  0  0
   -3.2906   -8.4887   -0.0000 C   0  0  0  0  0  0  0  0  0  0  0  0
    0.4769  -13.2100   -0.0000 C   0  0  0  0  0  0  0  0  0  0  0  0
   -3.3025   -9.9910   -0.0000 C   0  0  0  0  0  0  0  0  0  0  0  0
    1.2399  -14.4738   -0.0000 C   0  0  0  0  0  0  0  0  0  0  0  0
   -1.0372  -13.2219   -0.0000 C   0  0  0  0  0  0  0  0  0  0  0  0
    0.5127  -15.7733   -0.0000 C   0  0  0  0  0  0  0  0  0  0  0  0
   -1.7764  -14.5215   -0.0000 C   0  0  0  0  0  0  0  0  0  0  0  0
    1.0015  -17.1802   -0.0000 O   0  0  0  0  0  0  0  0  0  0  0  0
   -1.0134  -15.7972   -0.0000 C   0  0  0  0  0  0  0  0  0  0  0  0
   -0.2146  -18.0863   -0.0000 C   0  0  0  0  0  0  0  0  0  0  0  0
   -1.4545  -17.2278   -0.0000 O   0  0  0  0  0  0  0  0  0  0  0  0
  1  2  2  0
  2  3  1  0
  2  4  1  0
  3  5  1  0
  4  6  1  0
  5  7  1  0
  5  8  1  0
  5  9  1  0
  6 10  1  0
 10 11  2  0
 10 12  1  0
 11 13  1  0
 12 14  2  0
 14 15  1  0
 15 16  2  0
 15 17  1  0
 16 18  1  0
 17 19  2  0
 17 20  1  0
 18 21  1  0
 19 22  1  0
 20 23  2  0
 21 24  1  0
 22 25  2  0
 24 26  2  0
 24 27  1  0
 26 28  1  0
 27 29  2  0
 28 30  1  0
 28 31  2  0
 30 32  1  0
 31 33  1  0
 13 14  1  0
 18 19  1  0
 23 25  1  0
 29 31  1  0
 32 33  1  0
M  END
>  <MolRegNo>  (1) 
480173

>  <m>  (1) 
=

>  <Value>  (1) 
3300

>  <Unit>  (1) 
nM

>  <Type>  (1) 
IC50

>  <pValue>  (1) 
5.48

>  <Ligand Efficiency>  (1) 
0

>  <Binding Efficiency>  (1) 
0

>  <Surface Efficiency>  (1) 
0

>  <Assay Index>  (1) 
349782

>  <Assay Category>  (1) 


>  <Assay Organism>  (1) 
Homo sapiens

>  <Target ID>  (1) 
11365

>  <Target Name>  (1) 
Cytochrome P450 2D6

>  <Target Organism>  (1) 
Homo sapiens

>  <Target Description>  (1) 
Target is a single protein chain

>  <Sequence Accession>  (1) 
P10635

>  <Reference>  (1) 
J Med Chem 52 (9), 2694-2707 (2009)

>  <Pubmed ID>  (1) 
19341281

>  <DOI>  (1) 
10.1021/jm801180p

$$$$
