4wnv_ligand_133
     RDKit          2D

 27 29  0  0  0  0  0  0  0  0999 V2000
    0.0000   -0.0000   -0.0000 S   0  0  0  0  0  0  0  0  0  0  0  0
    0.6490    1.2627   -0.0000 C   0  0  0  0  0  0  0  0  0  0  0  0
   -1.5105    0.1534   -0.0000 C   0  0  0  0  0  0  0  0  0  0  0  0
   -0.4484    2.3365   -0.0000 C   0  0  0  0  0  0  0  0  0  0  0  0
    2.0887    1.6993   -0.0000 C   0  0  0  0  0  0  0  0  0  0  0  0
   -1.7701    1.6285   -0.0000 C   0  0  0  0  0  0  0  0  0  0  0  0
   -0.0944    3.7998   -0.0000 C   0  0  0  0  0  0  0  0  0  0  0  0
    2.4427    3.1743   -0.0000 C   0  0  0  0  0  0  0  0  0  0  0  0
   -3.2215    2.0297   -0.0000 C   0  0  0  0  0  0  0  0  0  0  0  0
    1.3453    4.2246   -0.0000 C   0  0  0  0  0  0  0  0  0  0  0  0
   -4.5314    1.2863   -0.0000 C   0  0  0  0  0  0  0  0  0  0  0  0
   -5.8412    0.5546   -0.0000 N   0  0  0  0  0  0  0  0  0  0  0  0
   -3.2451    0.5546   -0.0000 C   0  0  0  0  0  0  0  0  0  0  0  0
   -3.8116    2.5961   -0.0000 C   0  0  0  0  0  0  0  0  0  0  0  0
   -7.1511    1.3099   -0.0000 C   0  0  0  0  0  0  0  0  0  0  0  0
   -8.4609    0.5546   -0.0000 C   0  0  0  0  0  0  0  0  0  0  0  0
   -8.4845   -0.9322   -0.0000 O   0  0  0  0  0  0  0  0  0  0  0  0
   -9.7708    1.3099   -0.0000 C   0  0  0  0  0  0  0  0  0  0  0  0
  -11.0925    0.5664   -0.0000 O   0  0  0  0  0  0  0  0  0  0  0  0
  -11.0807   -0.9204   -0.0000 C   0  0  0  0  0  0  0  0  0  0  0  0
  -12.3905   -1.6521   -0.0000 C   0  0  0  0  0  0  0  0  0  0  0  0
   -9.7944   -1.6521   -0.0000 C   0  0  0  0  0  0  0  0  0  0  0  0
  -13.7004   -0.8968   -0.0000 C   0  0  0  0  0  0  0  0  0  0  0  0
  -12.4023   -3.1389   -0.0000 C   0  0  0  0  0  0  0  0  0  0  0  0
   -9.8062   -3.1389   -0.0000 C   0  0  0  0  0  0  0  0  0  0  0  0
  -15.0102   -0.1416   -0.0000 N   0  0  0  0  0  0  0  0  0  0  0  0
  -11.1161   -3.8824   -0.0000 C   0  0  0  0  0  0  0  0  0  0  0  0
  1  2  1  0
  1  3  1  0
  2  4  2  0
  2  5  1  0
  3  6  2  0
  4  7  1  0
  5  8  2  0
  6  9  1  0
  7 10  2  0
  9 11  1  0
 11 12  1  0
 11 13  1  0
 11 14  1  0
 12 15  1  0
 15 16  1  0
 16 17  1  0
 16 18  1  0
 18 19  1  0
 19 20  1  0
 20 21  2  0
 20 22  1  0
 21 23  1  0
 21 24  1  0
 22 25  2  0
 23 26  3  0
 24 27  2  0
  4  6  1  0
  8 10  1  0
 25 27  1  0
M  END
>  <MolRegNo>  (1) 
301305

>  <m>  (1) 
=

>  <Value>  (1) 
50

>  <Unit>  (1) 
nM

>  <Type>  (1) 
IC50

>  <pValue>  (1) 
7.3

>  <Ligand Efficiency>  (1) 
0

>  <Binding Efficiency>  (1) 
0

>  <Surface Efficiency>  (1) 
0

>  <Assay Index>  (1) 
238811

>  <Assay Category>  (1) 


>  <Assay Organism>  (1) 
Homo sapiens

>  <Target ID>  (1) 
11365

>  <Target Name>  (1) 
Cytochrome P450 2D6

>  <Target Organism>  (1) 
Homo sapiens

>  <Target Description>  (1) 
Target is a single protein chain

>  <Sequence Accession>  (1) 
P10635

>  <Reference>  (1) 
Bioorg Med Chem Lett 15 (17), 3816-3820 (2005)

>  <Pubmed ID>  (1) 
15993593

>  <DOI>  (1) 
10.1016/j.bmcl.2005.06.007

$$$$
