4wnv_ligand_385
     RDKit          2D

 41 44  0  0  1  0  0  0  0  0999 V2000
    0.0000   -0.0000   -0.0000 F   0  0  0  0  0  0  0  0  0  0  0  0
   -0.0118    1.4962   -0.0000 C   0  0  0  0  0  0  0  0  0  0  0  0
    1.2841    2.2620   -0.0000 C   0  0  0  0  0  0  0  0  0  0  0  0
   -1.3195    2.2620   -0.0000 C   0  0  0  0  0  0  0  0  0  0  0  0
    1.2723    3.7581   -0.0000 C   0  0  0  0  0  0  0  0  0  0  0  0
   -1.3195    3.7699   -0.0000 C   0  0  0  0  0  0  0  0  0  0  0  0
   -0.0236    4.5121   -0.0000 C   0  0  0  0  0  0  0  0  0  0  0  0
    2.5447    4.5121   -0.0000 C   0  0  0  0  0  0  0  0  0  0  0  0
   -0.0353    6.0201   -0.0000 C   0  0  0  0  0  0  0  0  0  0  0  0
    0.1178    7.5281   -0.0000 C   0  0  0  0  0  0  0  0  0  0  0  0
   -1.4962    5.7256   -0.0000 C   0  0  0  0  0  0  0  0  0  0  0  0
    1.4019    8.2938   -0.0000 C   0  0  0  0  0  0  0  0  0  0  0  0
   -1.2606    8.1525   -0.0000 C   0  0  0  0  0  0  0  0  0  0  0  0
   -2.2502    7.0333   -0.0000 N   0  0  0  0  0  0  0  0  0  0  0  0
    2.6861    7.5516   -0.0000 O   0  0  0  0  0  0  0  0  0  0  0  0
    1.4019    9.8018   -0.0000 N   0  0  0  0  0  0  0  0  0  0  0  0
   -3.7464    7.2100   -0.0000 C   0  0  0  0  0  0  0  0  0  0  0  0
    2.6861   10.5558   -0.0000 C   0  0  0  0  0  0  0  0  0  0  0  0
    0.0942   10.5676   -0.0000 C   0  0  0  0  0  0  0  0  0  0  0  0
   -4.3708    8.5884   -0.0000 O   0  0  0  0  0  0  0  0  0  0  0  0
   -4.6417    6.0201   -0.0000 C   0  0  0  0  0  0  0  0  0  0  0  0
    2.6861   12.0638   -0.0000 C   0  0  0  0  0  0  0  0  0  0  0  0
   -4.0409    4.6653   -0.0000 N   0  0  0  0  0  0  0  0  0  0  0  0
   -6.1379    6.1968   -0.0000 C   0  0  0  0  0  0  0  0  0  0  0  0
    3.9820   12.8177   -0.0000 C   0  0  0  0  0  0  0  0  0  0  0  0
    1.3902   12.8177   -0.0000 C   0  0  0  0  0  0  0  0  0  0  0  0
   -4.9362    3.4636   -0.0000 C   0  0  0  0  0  0  0  0  0  0  0  0
   -7.0333    5.0069   -0.0000 N   0  0  0  0  0  0  0  0  0  0  0  0
    3.9820   14.3257   -0.0000 C   0  0  0  0  0  0  0  0  0  0  0  0
    1.3784   14.3257   -0.0000 C   0  0  0  0  0  0  0  0  0  0  0  0
   -6.4442    3.6286   -0.0000 C   0  0  0  0  0  0  0  0  0  0  0  0
    2.6743   15.0797   -0.0000 C   0  0  0  0  0  0  0  0  0  0  0  0
    5.2661   15.0797   -0.0000 C   0  0  0  0  0  0  0  0  0  0  0  0
    0.0707   15.0797   -0.0000 C   0  0  0  0  0  0  0  0  0  0  0  0
   -7.3396    2.4387   -0.0000 C   0  0  0  0  0  0  0  0  0  0  0  0
    6.5385   15.8455   -0.0000 F   0  0  0  0  0  0  0  0  0  0  0  0
    5.9965   13.7956   -0.0000 F   0  0  0  0  0  0  0  0  0  0  0  0
    4.5003   16.3756   -0.0000 F   0  0  0  0  0  0  0  0  0  0  0  0
   -1.2370   15.8455   -0.0000 F   0  0  0  0  0  0  0  0  0  0  0  0
   -0.6833   13.7956   -0.0000 F   0  0  0  0  0  0  0  0  0  0  0  0
    0.8129   16.3756   -0.0000 F   0  0  0  0  0  0  0  0  0  0  0  0
  1  2  1  0
  2  3  2  0
  2  4  1  0
  3  5  1  0
  4  6  2  0
  5  7  2  0
  5  8  1  0
  9  7  1  1
  9 10  1  0
  9 11  1  0
 10 12  1  6
 10 13  1  0
 11 14  1  0
 12 15  2  0
 12 16  1  0
 14 17  1  0
 16 18  1  0
 16 19  1  0
 17 20  2  0
 17 21  1  0
 18 22  1  0
 21 23  2  0
 21 24  1  0
 22 25  2  0
 22 26  1  0
 23 27  1  0
 24 28  2  0
 25 29  1  0
 26 30  2  0
 27 31  2  0
 29 32  2  0
 29 33  1  0
 30 34  1  0
 31 35  1  0
 33 36  1  0
 33 37  1  0
 33 38  1  0
 34 39  1  0
 34 40  1  0
 34 41  1  0
  6  7  1  0
 13 14  1  0
 28 31  1  0
 30 32  1  0
M  END
>  <MolRegNo>  (1) 
399385

>  <m>  (1) 
=

>  <Value>  (1) 
73000

>  <Unit>  (1) 
nM

>  <Type>  (1) 
IC50

>  <pValue>  (1) 
4.14

>  <Ligand Efficiency>  (1) 
0

>  <Binding Efficiency>  (1) 
0

>  <Surface Efficiency>  (1) 
0

>  <Assay Index>  (1) 
297939

>  <Assay Category>  (1) 


>  <Assay Organism>  (1) 
Homo sapiens

>  <Target ID>  (1) 
11365

>  <Target Name>  (1) 
Cytochrome P450 2D6

>  <Target Organism>  (1) 
Homo sapiens

>  <Target Description>  (1) 
Target is a single protein chain

>  <Sequence Accession>  (1) 
P10635

>  <Reference>  (1) 
Bioorg Med Chem Lett 17 (19), 5310-5315 (2007)

>  <Pubmed ID>  (1) 
17723300

>  <DOI>  (1) 
10.1016/j.bmcl.2007.08.028

$$$$
