4wnv_ligand_580
     RDKit          2D

 18 20  0  0  0  0  0  0  0  0999 V2000
    0.0000   -0.0000   -0.0000 N   0  0  0  0  0  0  0  0  0  0  0  0
   -1.5034   -0.1421   -0.0000 C   0  0  0  0  0  0  0  0  0  0  0  0
    0.8760   -1.2075   -0.0000 C   0  0  0  0  0  0  0  0  0  0  0  0
   -2.3913    1.0773   -0.0000 N   0  0  0  0  0  0  0  0  0  0  0  0
   -2.1190   -1.4916   -0.0000 C   0  0  0  0  0  0  0  0  0  0  0  0
    0.2486   -2.5689   -0.0000 C   0  0  0  0  0  0  0  0  0  0  0  0
   -1.7994    2.4505   -0.0000 C   0  0  0  0  0  0  0  0  0  0  0  0
   -1.2548   -2.6991   -0.0000 C   0  0  0  0  0  0  0  0  0  0  0  0
   -3.5633   -1.9415   -0.0000 C   0  0  0  0  0  0  0  0  0  0  0  0
   -2.6873    3.6698   -0.0000 C   0  0  0  0  0  0  0  0  0  0  0  0
   -2.1427   -3.9066   -0.0000 N   0  0  0  0  0  0  0  0  0  0  0  0
   -3.5751   -3.4331   -0.0000 C   0  0  0  0  0  0  0  0  0  0  0  0
   -4.8655   -1.1838   -0.0000 C   0  0  0  0  0  0  0  0  0  0  0  0
   -2.0953    5.0430   -0.0000 C   0  0  0  0  0  0  0  0  0  0  0  0
   -4.8773   -4.1670   -0.0000 C   0  0  0  0  0  0  0  0  0  0  0  0
   -6.1677   -1.9178   -0.0000 C   0  0  0  0  0  0  0  0  0  0  0  0
   -2.9832    6.2624   -0.0000 C   0  0  0  0  0  0  0  0  0  0  0  0
   -6.1795   -3.4094   -0.0000 C   0  0  0  0  0  0  0  0  0  0  0  0
  1  2  2  0
  1  3  1  0
  2  4  1  0
  2  5  1  0
  3  6  2  0
  4  7  1  0
  5  8  2  0
  5  9  1  0
  7 10  1  0
  8 11  1  0
  9 12  2  0
  9 13  1  0
 10 14  1  0
 12 15  1  0
 13 16  2  0
 14 17  1  0
 15 18  2  0
  6  8  1  0
 11 12  1  0
 16 18  1  0
M  END
>  <MolRegNo>  (1) 
493574

>  <m>  (1) 
=

>  <Value>  (1) 
7.943

>  <Unit>  (1) 
nM

>  <Type>  (1) 
IC50

>  <pValue>  (1) 
8.1

>  <Ligand Efficiency>  (1) 
0

>  <Binding Efficiency>  (1) 
0

>  <Surface Efficiency>  (1) 
0

>  <Assay Index>  (1) 
345631

>  <Assay Category>  (1) 


>  <Assay Organism>  (1) 


>  <Target ID>  (1) 
11365

>  <Target Name>  (1) 
Cytochrome P450 2D6

>  <Target Organism>  (1) 
Homo sapiens

>  <Target Description>  (1) 
Target is a single protein chain

>  <Sequence Accession>  (1) 
P10635

>  <Reference>  (1) 
Bioorg Med Chem Lett 18 (18), 4936-4939 (2008)

>  <Pubmed ID>  (1) 
18768319

>  <DOI>  (1) 
10.1016/j.bmcl.2008.08.054

$$$$
