4wnv_ligand_692
     RDKit          2D

 36 39  0  0  0  0  0  0  0  0999 V2000
    0.0000   -0.0000   -0.0000 S   0  0  0  0  0  0  0  0  0  0  0  0
    1.4203    0.4379   -0.0000 O   0  0  0  0  0  0  0  0  0  0  0  0
   -1.4440   -0.4261   -0.0000 O   0  0  0  0  0  0  0  0  0  0  0  0
   -0.4853    1.4322   -0.0000 N   0  0  0  0  0  0  0  0  0  0  0  0
    0.3669   -1.4322   -0.0000 C   0  0  0  0  0  0  0  0  0  0  0  0
    0.3788    2.6631   -0.0000 N   0  0  0  0  0  0  0  0  0  0  0  0
   -1.9293    1.9056   -0.0000 C   0  0  0  0  0  0  0  0  0  0  0  0
    1.7873   -1.8109   -0.0000 C   0  0  0  0  0  0  0  0  0  0  0  0
   -0.7102   -2.4738   -0.0000 C   0  0  0  0  0  0  0  0  0  0  0  0
   -0.5208    3.8823   -0.0000 C   0  0  0  0  0  0  0  0  0  0  0  0
   -1.9530    3.4206   -0.0000 C   0  0  0  0  0  0  0  0  0  0  0  0
   -3.2431    1.1599   -0.0000 C   0  0  0  0  0  0  0  0  0  0  0  0
    2.1660   -3.2313   -0.0000 C   0  0  0  0  0  0  0  0  0  0  0  0
   -0.3432   -3.9059   -0.0000 C   0  0  0  0  0  0  0  0  0  0  0  0
   -0.0829    5.3263   -0.0000 C   0  0  0  0  0  0  0  0  0  0  0  0
   -3.2668    4.1782   -0.0000 C   0  0  0  0  0  0  0  0  0  0  0  0
   -4.5569    1.9175   -0.0000 C   0  0  0  0  0  0  0  0  0  0  0  0
    3.5982   -3.6100   -0.0000 O   0  0  0  0  0  0  0  0  0  0  0  0
    1.0889   -4.2847   -0.0000 C   0  0  0  0  0  0  0  0  0  0  0  0
    1.3256    5.8115   -0.0000 O   0  0  0  0  0  0  0  0  0  0  0  0
   -0.9824    6.5454   -0.0000 N   0  0  0  0  0  0  0  0  0  0  0  0
   -4.5687    3.4443   -0.0000 C   0  0  0  0  0  0  0  0  0  0  0  0
    3.9769   -5.0422   -0.0000 C   0  0  0  0  0  0  0  0  0  0  0  0
    1.4677   -5.7287   -0.0000 O   0  0  0  0  0  0  0  0  0  0  0  0
    1.3020    7.3266   -0.0000 N   0  0  0  0  0  0  0  0  0  0  0  0
   -0.1184    7.7763   -0.0000 C   0  0  0  0  0  0  0  0  0  0  0  0
    0.3906   -6.7703   -0.0000 C   0  0  0  0  0  0  0  0  0  0  0  0
   -0.6036    9.2085   -0.0000 C   0  0  0  0  0  0  0  0  0  0  0  0
    0.3788   10.3448   -0.0000 N   0  0  0  0  0  0  0  0  0  0  0  0
   -0.1065   11.7769   -0.0000 C   0  0  0  0  0  0  0  0  0  0  0  0
   -1.5860   12.0965   -0.0000 O   0  0  0  0  0  0  0  0  0  0  0  0
    0.8759   12.9132   -0.0000 O   0  0  0  0  0  0  0  0  0  0  0  0
    2.3317   12.6173   -0.0000 C   0  0  0  0  0  0  0  0  0  0  0  0
    3.7639   12.2386   -0.0000 C   0  0  0  0  0  0  0  0  0  0  0  0
    2.6631   14.0850   -0.0000 C   0  0  0  0  0  0  0  0  0  0  0  0
    1.9766   11.1615   -0.0000 C   0  0  0  0  0  0  0  0  0  0  0  0
  1  2  2  0
  1  3  2  0
  1  4  1  0
  1  5  1  0
  4  6  1  0
  4  7  1  0
  5  8  2  0
  5  9  1  0
  6 10  2  0
  7 11  2  0
  7 12  1  0
  8 13  1  0
  9 14  2  0
 10 15  1  0
 11 16  1  0
 12 17  2  0
 13 18  1  0
 13 19  2  0
 15 20  1  0
 15 21  2  0
 16 22  2  0
 18 23  1  0
 19 24  1  0
 20 25  1  0
 21 26  1  0
 24 27  1  0
 26 28  1  0
 28 29  1  0
 29 30  1  0
 30 31  2  0
 30 32  1  0
 32 33  1  0
 33 34  1  0
 33 35  1  0
 33 36  1  0
 10 11  1  0
 14 19  1  0
 17 22  1  0
 25 26  2  0
M  END
>  <MolRegNo>  (1) 
479892

>  <m>  (1) 
=

>  <Value>  (1) 
20000

>  <Unit>  (1) 
nM

>  <Type>  (1) 
IC50

>  <pValue>  (1) 
4.7

>  <Ligand Efficiency>  (1) 
0

>  <Binding Efficiency>  (1) 
0

>  <Surface Efficiency>  (1) 
0

>  <Assay Index>  (1) 
349782

>  <Assay Category>  (1) 


>  <Assay Organism>  (1) 
Homo sapiens

>  <Target ID>  (1) 
11365

>  <Target Name>  (1) 
Cytochrome P450 2D6

>  <Target Organism>  (1) 
Homo sapiens

>  <Target Description>  (1) 
Target is a single protein chain

>  <Sequence Accession>  (1) 
P10635

>  <Reference>  (1) 
J Med Chem 52 (9), 2694-2707 (2009)

>  <Pubmed ID>  (1) 
19341281

>  <DOI>  (1) 
10.1021/jm801180p

$$$$
