4wnv_ligand_939
     RDKit          2D

 38 42  0  0  1  0  0  0  0  0999 V2000
    0.0000   -0.0000   -0.0000 F   0  0  0  0  0  0  0  0  0  0  0  0
   -1.3088   -0.7496   -0.0000 C   0  0  0  0  0  0  0  0  0  0  0  0
   -1.3207   -2.2368   -0.0000 F   0  0  0  0  0  0  0  0  0  0  0  0
   -0.0238   -1.4872   -0.0000 F   0  0  0  0  0  0  0  0  0  0  0  0
   -2.6294    0.0119   -0.0000 O   0  0  0  0  0  0  0  0  0  0  0  0
   -3.9382   -0.7377   -0.0000 C   0  0  0  0  0  0  0  0  0  0  0  0
   -5.2469    0.0238   -0.0000 C   0  0  0  0  0  0  0  0  0  0  0  0
   -3.9501   -2.2368   -0.0000 C   0  0  0  0  0  0  0  0  0  0  0  0
   -6.5557   -0.7139   -0.0000 C   0  0  0  0  0  0  0  0  0  0  0  0
   -5.2707   -2.9744   -0.0000 C   0  0  0  0  0  0  0  0  0  0  0  0
   -6.5676   -2.2011   -0.0000 C   0  0  0  0  0  0  0  0  0  0  0  0
   -7.8644    0.0476   -0.0000 C   0  0  0  0  0  0  0  0  0  0  0  0
   -9.1732   -0.6901   -0.0000 N   0  0  0  0  0  0  0  0  0  0  0  0
  -10.4820    0.0714   -0.0000 C   0  0  0  0  0  0  0  0  0  0  0  0
   -9.1851   -2.1773   -0.0000 C   0  0  0  0  0  0  0  0  0  0  0  0
  -10.4938    1.5824   -0.0000 O   0  0  0  0  0  0  0  0  0  0  0  0
  -11.7907   -0.6663   -0.0000 C   0  0  0  0  0  0  0  0  0  0  0  0
   -7.9715   -3.0458   -0.0000 C   0  0  0  0  0  0  0  0  0  0  0  0
  -10.4106   -3.0458   -0.0000 C   0  0  0  0  0  0  0  0  0  0  0  0
  -13.0400    0.2023   -0.0000 N   0  0  0  0  0  0  0  0  0  0  0  0
  -12.2547   -2.0940   -0.0000 C   0  0  0  0  0  0  0  0  0  0  0  0
   -8.4474   -4.4617   -0.0000 C   0  0  0  0  0  0  0  0  0  0  0  0
   -9.9466   -4.4617   -0.0000 C   0  0  0  0  0  0  0  0  0  0  0  0
  -14.2535   -0.6901   -0.0000 C   0  0  0  0  0  0  0  0  0  0  0  0
  -13.7657   -2.1059   -0.0000 N   0  0  0  0  0  0  0  0  0  0  0  0
   -8.0072   -5.8775   -0.0000 C   0  0  0  0  0  0  0  0  0  0  0  0
  -10.4225   -5.8775   -0.0000 C   0  0  0  0  0  0  0  0  0  0  0  0
  -14.6462   -3.3195   -0.0000 C   0  0  0  0  0  0  0  0  0  0  0  0
   -9.2327   -6.7341   -0.0000 N   0  0  0  0  0  0  0  0  0  0  0  0
   -9.2565   -8.2214   -0.0000 C   0  0  0  0  0  0  0  0  0  0  0  0
  -10.5771   -8.9590   -0.0000 C   0  0  0  0  0  0  0  0  0  0  0  0
  -11.8859   -8.1857   -0.0000 O   0  0  0  0  0  0  0  0  0  0  0  0
  -10.6009  -10.4463   -0.0000 C   0  0  0  0  0  0  0  0  0  0  0  0
   -9.3160  -11.1839   -0.0000 C   0  0  0  0  0  0  0  0  0  0  0  0
  -11.9216  -11.1720   -0.0000 C   0  0  0  0  0  0  0  0  0  0  0  0
   -9.3279  -12.6711   -0.0000 C   0  0  0  0  0  0  0  0  0  0  0  0
  -11.9454  -12.6592   -0.0000 C   0  0  0  0  0  0  0  0  0  0  0  0
  -10.6485  -13.4088   -0.0000 C   0  0  0  0  0  0  0  0  0  0  0  0
  1  2  1  0
  2  3  1  0
  2  4  1  0
  2  5  1  0
  5  6  1  0
  6  7  2  0
  6  8  1  0
  7  9  1  0
  8 10  2  0
  9 11  2  0
  9 12  1  0
 12 13  1  0
 13 14  1  0
 15 13  1  1
 14 16  2  0
 14 17  1  0
 15 18  1  0
 15 19  1  0
 17 20  1  0
 17 21  2  0
 22 18  1  1
 23 19  1  1
 20 24  2  0
 21 25  1  0
 22 26  1  0
 23 27  1  0
 25 28  1  0
 26 29  1  0
 29 30  1  0
 30 31  1  0
 31 32  1  0
 31 33  1  0
 33 34  2  0
 33 35  1  0
 34 36  1  0
 35 37  2  0
 36 38  2  0
 10 11  1  0
 22 23  1  0
 24 25  1  0
 27 29  1  0
 37 38  1  0
M  END
>  <MolRegNo>  (1) 
600581

>  <m>  (1) 
=

>  <Value>  (1) 
1700

>  <Unit>  (1) 
nM

>  <Type>  (1) 
IC50

>  <pValue>  (1) 
5.77

>  <Ligand Efficiency>  (1) 
0

>  <Binding Efficiency>  (1) 
0

>  <Surface Efficiency>  (1) 
0

>  <Assay Index>  (1) 
457653

>  <Assay Category>  (1) 


>  <Assay Organism>  (1) 


>  <Target ID>  (1) 
11365

>  <Target Name>  (1) 
Cytochrome P450 2D6

>  <Target Organism>  (1) 
Homo sapiens

>  <Target Description>  (1) 
Target is a single protein chain

>  <Sequence Accession>  (1) 
P10635

>  <Reference>  (1) 
Bioorg Med Chem Lett 20 (3), 907-911 (2010)

>  <Pubmed ID>  (1) 
20045321

>  <DOI>  (1) 
10.1016/j.bmcl.2009.12.071

$$$$
