4wnv_ligand_316
     RDKit          2D

 23 25  0  0  0  0  0  0  0  0999 V2000
    0.0000   -0.0000   -0.0000 Cl  0  0  0  0  0  0  0  0  0  0  0  0
   -1.3113    0.7561   -0.0000 C   0  0  0  0  0  0  0  0  0  0  0  0
   -2.6108    0.0118   -0.0000 C   0  0  0  0  0  0  0  0  0  0  0  0
   -1.3350    2.2682   -0.0000 C   0  0  0  0  0  0  0  0  0  0  0  0
   -3.9103    0.7679   -0.0000 C   0  0  0  0  0  0  0  0  0  0  0  0
   -2.6463    3.0125   -0.0000 C   0  0  0  0  0  0  0  0  0  0  0  0
   -3.9222    2.2682   -0.0000 C   0  0  0  0  0  0  0  0  0  0  0  0
   -5.2335    3.0243   -0.0000 C   0  0  0  0  0  0  0  0  0  0  0  0
   -6.5330    2.2919   -0.0000 N   0  0  0  0  0  0  0  0  0  0  0  0
   -5.2571    4.5365   -0.0000 C   0  0  0  0  0  0  0  0  0  0  0  0
   -7.8325    3.0479   -0.0000 C   0  0  0  0  0  0  0  0  0  0  0  0
   -3.9812    5.3044   -0.0000 O   0  0  0  0  0  0  0  0  0  0  0  0
   -6.5684    5.2807   -0.0000 C   0  0  0  0  0  0  0  0  0  0  0  0
   -7.8443    4.5601   -0.0000 C   0  0  0  0  0  0  0  0  0  0  0  0
   -9.1320    2.3037   -0.0000 C   0  0  0  0  0  0  0  0  0  0  0  0
   -6.5921    6.7811   -0.0000 C   0  0  0  0  0  0  0  0  0  0  0  0
   -9.1438    5.3162   -0.0000 C   0  0  0  0  0  0  0  0  0  0  0  0
  -10.4315    3.0598   -0.0000 C   0  0  0  0  0  0  0  0  0  0  0  0
   -9.1438    0.8270   -0.0000 C   0  0  0  0  0  0  0  0  0  0  0  0
   -7.9034    7.5372   -0.0000 O   0  0  0  0  0  0  0  0  0  0  0  0
   -5.3162    7.5490   -0.0000 O   0  0  0  0  0  0  0  0  0  0  0  0
  -10.4433    4.5837   -0.0000 C   0  0  0  0  0  0  0  0  0  0  0  0
  -11.7310    2.3273   -0.0000 C   0  0  0  0  0  0  0  0  0  0  0  0
  1  2  1  0
  2  3  2  0
  2  4  1  0
  3  5  1  0
  4  6  2  0
  5  7  2  0
  7  8  1  0
  8  9  2  0
  8 10  1  0
  9 11  1  0
 10 12  1  0
 10 13  2  0
 11 14  2  0
 11 15  1  0
 13 16  1  0
 14 17  1  0
 15 18  2  0
 15 19  1  0
 16 20  2  0
 16 21  1  0
 17 22  2  0
 18 23  1  0
  6  7  1  0
 13 14  1  0
 18 22  1  0
M  END
>  <MolRegNo>  (1) 
365556

>  <m>  (1) 
=

>  <Value>  (1) 
17000

>  <Unit>  (1) 
nM

>  <Type>  (1) 
IC50

>  <pValue>  (1) 
4.77

>  <Ligand Efficiency>  (1) 
0

>  <Binding Efficiency>  (1) 
0

>  <Surface Efficiency>  (1) 
0

>  <Assay Index>  (1) 
272192

>  <Assay Category>  (1) 


>  <Assay Organism>  (1) 
Homo sapiens

>  <Target ID>  (1) 
11365

>  <Target Name>  (1) 
Cytochrome P450 2D6

>  <Target Organism>  (1) 
Homo sapiens

>  <Target Description>  (1) 
Target is a single protein chain

>  <Sequence Accession>  (1) 
P10635

>  <Reference>  (1) 
J Med Chem 50 (1), 21-39 (2007)

>  <Pubmed ID>  (1) 
17201408

>  <DOI>  (1) 
10.1021/jm0602256

$$$$
