4wnv_ligand_697
     RDKit          2D

 29 32  0  0  0  0  0  0  0  0999 V2000
    0.0000   -0.0000   -0.0000 O   0  0  0  0  0  0  0  0  0  0  0  0
   -0.4858    1.4337   -0.0000 C   0  0  0  0  0  0  0  0  0  0  0  0
    0.3792    2.6660   -0.0000 O   0  0  0  0  0  0  0  0  0  0  0  0
   -1.9314    1.8958   -0.0000 C   0  0  0  0  0  0  0  0  0  0  0  0
   -0.5214    3.8864   -0.0000 C   0  0  0  0  0  0  0  0  0  0  0  0
   -1.9551    3.4125   -0.0000 C   0  0  0  0  0  0  0  0  0  0  0  0
   -3.2466    1.1612   -0.0000 C   0  0  0  0  0  0  0  0  0  0  0  0
   -3.2703    4.1708   -0.0000 C   0  0  0  0  0  0  0  0  0  0  0  0
   -3.2584   -0.3199   -0.0000 C   0  0  0  0  0  0  0  0  0  0  0  0
   -4.5737    3.4243   -0.0000 C   0  0  0  0  0  0  0  0  0  0  0  0
   -1.9788   -1.0427   -0.0000 C   0  0  0  0  0  0  0  0  0  0  0  0
   -4.5618   -1.0546   -0.0000 C   0  0  0  0  0  0  0  0  0  0  0  0
   -5.8889    4.1708   -0.0000 C   0  0  0  0  0  0  0  0  0  0  0  0
   -4.5737    1.9314   -0.0000 C   0  0  0  0  0  0  0  0  0  0  0  0
   -1.9788   -2.5238   -0.0000 C   0  0  0  0  0  0  0  0  0  0  0  0
   -4.5737   -2.5357   -0.0000 C   0  0  0  0  0  0  0  0  0  0  0  0
   -7.1923    3.4362   -0.0000 C   0  0  0  0  0  0  0  0  0  0  0  0
   -5.8889    1.1967   -0.0000 C   0  0  0  0  0  0  0  0  0  0  0  0
   -0.6872   -3.2584   -0.0000 O   0  0  0  0  0  0  0  0  0  0  0  0
   -3.2821   -3.2703   -0.0000 C   0  0  0  0  0  0  0  0  0  0  0  0
   -5.8770   -3.2703   -0.0000 O   0  0  0  0  0  0  0  0  0  0  0  0
   -8.6378    3.9101   -0.0000 O   0  0  0  0  0  0  0  0  0  0  0  0
   -7.1923    1.9432   -0.0000 C   0  0  0  0  0  0  0  0  0  0  0  0
   -0.6872   -4.7396   -0.0000 C   0  0  0  0  0  0  0  0  0  0  0  0
   -3.2940   -4.7514   -0.0000 O   0  0  0  0  0  0  0  0  0  0  0  0
   -7.1804   -2.5120   -0.0000 C   0  0  0  0  0  0  0  0  0  0  0  0
   -9.5265    2.7015   -0.0000 C   0  0  0  0  0  0  0  0  0  0  0  0
   -8.6260    1.4811   -0.0000 O   0  0  0  0  0  0  0  0  0  0  0  0
   -4.5974   -5.4860   -0.0000 C   0  0  0  0  0  0  0  0  0  0  0  0
  1  2  2  0
  2  3  1  0
  2  4  1  0
  3  5  1  0
  4  6  1  0
  4  7  1  1
  6  8  1  6
  7  9  1  0
  8 10  1  0
  9 11  2  0
  9 12  1  0
 10 13  2  0
 10 14  1  0
 11 15  1  0
 12 16  2  0
 13 17  1  0
 14 18  2  0
 15 19  1  0
 15 20  2  0
 16 21  1  0
 17 22  1  0
 17 23  2  0
 19 24  1  0
 20 25  1  0
 21 26  1  0
 22 27  1  0
 23 28  1  0
 25 29  1  0
  5  6  1  0
 16 20  1  0
 18 23  1  0
 27 28  1  0
M  END
>  <MolRegNo>  (1) 
442461

>  <m>  (1) 
=

>  <Value>  (1) 
95700

>  <Unit>  (1) 
nM

>  <Type>  (1) 
IC50

>  <pValue>  (1) 
4.02

>  <Ligand Efficiency>  (1) 
0

>  <Binding Efficiency>  (1) 
0

>  <Surface Efficiency>  (1) 
0

>  <Assay Index>  (1) 
375003

>  <Assay Category>  (1) 


>  <Assay Organism>  (1) 
Homo sapiens

>  <Target ID>  (1) 
11365

>  <Target Name>  (1) 
Cytochrome P450 2D6

>  <Target Organism>  (1) 
Homo sapiens

>  <Target Description>  (1) 
Target is a single protein chain

>  <Sequence Accession>  (1) 
P10635

>  <Reference>  (1) 
J Nat Prod 68 (1), 64-68 (2005)

>  <Pubmed ID>  (1) 
15679319

>  <DOI>  (1) 
10.1021/np0401765

$$$$
