4wnv_ligand_849
     RDKit          2D

 31 33  0  0  0  0  0  0  0  0999 V2000
    0.0000   -0.0000   -0.0000 F   0  0  0  0  0  0  0  0  0  0  0  0
   -1.1133    0.6505   -0.0000 C   0  0  0  0  0  0  0  0  0  0  0  0
   -1.1258    2.2517   -0.0000 C   0  0  0  0  0  0  0  0  0  0  0  0
   -2.5019   -0.1251   -0.0000 C   0  0  0  0  0  0  0  0  0  0  0  0
   -0.0375    2.9022   -0.0000 F   0  0  0  0  0  0  0  0  0  0  0  0
   -2.5144    3.0523   -0.0000 C   0  0  0  0  0  0  0  0  0  0  0  0
   -3.8904    0.6755   -0.0000 C   0  0  0  0  0  0  0  0  0  0  0  0
   -3.9029    2.2767   -0.0000 C   0  0  0  0  0  0  0  0  0  0  0  0
   -5.0038    0.0500   -0.0000 F   0  0  0  0  0  0  0  0  0  0  0  0
   -5.2915    3.0898   -0.0000 C   0  0  0  0  0  0  0  0  0  0  0  0
   -5.3040    4.6910   -0.0000 C   0  0  0  0  0  0  0  0  0  0  0  0
   -4.2157    5.3415   -0.0000 N   0  0  0  0  0  0  0  0  0  0  0  0
   -6.6925    5.5041   -0.0000 C   0  0  0  0  0  0  0  0  0  0  0  0
   -6.7050    7.1053   -0.0000 C   0  0  0  0  0  0  0  0  0  0  0  0
   -5.6167    7.7558   -0.0000 O   0  0  0  0  0  0  0  0  0  0  0  0
   -8.0936    7.9185   -0.0000 N   0  0  0  0  0  0  0  0  0  0  0  0
   -8.2562    9.4946   -0.0000 C   0  0  0  0  0  0  0  0  0  0  0  0
   -9.5322    7.2680   -0.0000 C   0  0  0  0  0  0  0  0  0  0  0  0
   -9.8199    9.8324   -0.0000 C   0  0  0  0  0  0  0  0  0  0  0  0
   -7.0803   10.5579   -0.0000 C   0  0  0  0  0  0  0  0  0  0  0  0
  -10.6080    8.4564   -0.0000 C   0  0  0  0  0  0  0  0  0  0  0  0
   -7.4181   12.1216   -0.0000 N   0  0  0  0  0  0  0  0  0  0  0  0
   -6.2422   13.1849   -0.0000 C   0  0  0  0  0  0  0  0  0  0  0  0
   -5.0538   12.7971   -0.0000 O   0  0  0  0  0  0  0  0  0  0  0  0
   -6.5800   14.7486   -0.0000 C   0  0  0  0  0  0  0  0  0  0  0  0
   -5.4041   15.8119   -0.0000 C   0  0  0  0  0  0  0  0  0  0  0  0
   -7.5182   15.8995   -0.0000 C   0  0  0  0  0  0  0  0  0  0  0  0
   -8.0185   14.3983   -0.0000 C   0  0  0  0  0  0  0  0  0  0  0  0
   -4.2157   15.4241   -0.0000 F   0  0  0  0  0  0  0  0  0  0  0  0
   -4.4659   16.6750   -0.0000 F   0  0  0  0  0  0  0  0  0  0  0  0
   -5.6793   17.0628   -0.0000 F   0  0  0  0  0  0  0  0  0  0  0  0
  1  2  1  0
  2  3  2  0
  2  4  1  0
  3  5  1  0
  3  6  1  0
  4  7  2  0
  6  8  2  0
  7  9  1  0
  8 10  1  0
 10 11  1  0
 11 12  1  1
 11 13  1  0
 13 14  1  0
 14 15  2  0
 14 16  1  0
 16 17  1  0
 16 18  1  0
 17 19  1  0
 17 20  1  6
 18 21  1  0
 20 22  1  0
 22 23  1  0
 23 24  2  0
 23 25  1  0
 25 26  1  0
 25 27  1  0
 25 28  1  0
 26 29  1  0
 26 30  1  0
 26 31  1  0
  7  8  1  0
 19 21  1  0
 27 28  1  0
M  END
>  <MolRegNo>  (1) 
562518

>  <m>  (1) 
=

>  <Value>  (1) 
3600

>  <Unit>  (1) 
nM

>  <Type>  (1) 
IC50

>  <pValue>  (1) 
5.44

>  <Ligand Efficiency>  (1) 
0

>  <Binding Efficiency>  (1) 
0

>  <Surface Efficiency>  (1) 
0

>  <Assay Index>  (1) 
428036

>  <Assay Category>  (1) 


>  <Assay Organism>  (1) 
Homo sapiens

>  <Target ID>  (1) 
11365

>  <Target Name>  (1) 
Cytochrome P450 2D6

>  <Target Organism>  (1) 
Homo sapiens

>  <Target Description>  (1) 
Target is a single protein chain

>  <Sequence Accession>  (1) 
P10635

>  <Reference>  (1) 
Bioorg Med Chem Lett 19 (16), 4818-4823 (2009)

>  <Pubmed ID>  (1) 
19576767

>  <DOI>  (1) 
10.1016/j.bmcl.2009.06.036

$$$$
