4wnv_ligand_606
     RDKit          2D

 18 19  0  0  0  0  0  0  0  0999 V2000
    0.0000   -0.0000   -0.0000 N   0  0  0  0  0  0  0  0  0  0  0  0
    1.3620   -0.6093   -0.0000 C   0  0  0  0  0  0  0  0  0  0  0  0
   -1.0155   -1.1111   -0.0000 C   0  0  0  0  0  0  0  0  0  0  0  0
    1.2067   -2.0908   -0.0000 C   0  0  0  0  0  0  0  0  0  0  0  0
    2.6523    0.1553   -0.0000 C   0  0  0  0  0  0  0  0  0  0  0  0
   -0.2748   -2.4014   -0.0000 N   0  0  0  0  0  0  0  0  0  0  0  0
    3.9426   -0.5854   -0.0000 C   0  0  0  0  0  0  0  0  0  0  0  0
    5.2329    0.1792   -0.0000 C   0  0  0  0  0  0  0  0  0  0  0  0
    3.9306   -2.0908   -0.0000 C   0  0  0  0  0  0  0  0  0  0  0  0
    6.5232   -0.5615   -0.0000 C   0  0  0  0  0  0  0  0  0  0  0  0
    5.2209   -2.8315   -0.0000 C   0  0  0  0  0  0  0  0  0  0  0  0
    7.8135    0.2031   -0.0000 C   0  0  0  0  0  0  0  0  0  0  0  0
    6.5112   -2.0669   -0.0000 C   0  0  0  0  0  0  0  0  0  0  0  0
    9.1038    0.9797   -0.0000 C   0  0  0  0  0  0  0  0  0  0  0  0
   10.3940    1.7562   -0.0000 C   0  0  0  0  0  0  0  0  0  0  0  0
   11.6843    2.5328   -0.0000 C   0  0  0  0  0  0  0  0  0  0  0  0
   11.1467    0.4659   -0.0000 C   0  0  0  0  0  0  0  0  0  0  0  0
    9.6175    3.0704   -0.0000 C   0  0  0  0  0  0  0  0  0  0  0  0
  1  2  1  0
  1  3  2  0
  2  4  2  0
  2  5  1  0
  3  6  1  0
  5  7  1  0
  7  8  2  0
  7  9  1  0
  8 10  1  0
  9 11  2  0
 10 12  1  0
 10 13  2  0
 12 14  3  0
 14 15  1  0
 15 16  1  0
 15 17  1  0
 15 18  1  0
  4  6  1  0
 11 13  1  0
M  END
>  <MolRegNo>  (1) 
486167

>  <m>  (1) 
=

>  <Value>  (1) 
1785

>  <Unit>  (1) 
nM

>  <Type>  (1) 
IC50

>  <pValue>  (1) 
5.75

>  <Ligand Efficiency>  (1) 
0

>  <Binding Efficiency>  (1) 
0

>  <Surface Efficiency>  (1) 
0

>  <Assay Index>  (1) 
405421

>  <Assay Category>  (1) 


>  <Assay Organism>  (1) 
Homo sapiens

>  <Target ID>  (1) 
11365

>  <Target Name>  (1) 
Cytochrome P450 2D6

>  <Target Organism>  (1) 
Homo sapiens

>  <Target Description>  (1) 
Target is a single protein chain

>  <Sequence Accession>  (1) 
P10635

>  <Reference>  (1) 
J Med Chem 51 (10), 2944-2953 (2008)

>  <Pubmed ID>  (1) 
18433114

>  <DOI>  (1) 
10.1021/jm7014149

$$$$
