4wnv_ligand_731
     RDKit          2D

 40 44  0  0  0  0  0  0  0  0999 V2000
    0.0000   -0.0000   -0.0000 F   0  0  0  0  0  0  0  0  0  0  0  0
    1.3027   -0.7410   -0.0000 C   0  0  0  0  0  0  0  0  0  0  0  0
    2.5934    0.0239   -0.0000 C   0  0  0  0  0  0  0  0  0  0  0  0
    1.3027   -2.2468   -0.0000 C   0  0  0  0  0  0  0  0  0  0  0  0
    3.8841   -0.7171   -0.0000 C   0  0  0  0  0  0  0  0  0  0  0  0
    2.5934   -2.9758   -0.0000 C   0  0  0  0  0  0  0  0  0  0  0  0
    3.8721   -2.2109   -0.0000 C   0  0  0  0  0  0  0  0  0  0  0  0
    5.1629   -2.9519   -0.0000 C   0  0  0  0  0  0  0  0  0  0  0  0
    6.4536   -2.1870   -0.0000 C   0  0  0  0  0  0  0  0  0  0  0  0
    7.7443   -2.9280   -0.0000 C   0  0  0  0  0  0  0  0  0  0  0  0
    6.4416   -0.6693   -0.0000 C   0  0  0  0  0  0  0  0  0  0  0  0
    9.0350   -2.1631   -0.0000 N   0  0  0  0  0  0  0  0  0  0  0  0
    7.7323    0.1076   -0.0000 C   0  0  0  0  0  0  0  0  0  0  0  0
    9.0231   -0.6454   -0.0000 C   0  0  0  0  0  0  0  0  0  0  0  0
   10.3257   -2.9041   -0.0000 C   0  0  0  0  0  0  0  0  0  0  0  0
   10.3138   -4.3980   -0.0000 C   0  0  0  0  0  0  0  0  0  0  0  0
    8.9992   -5.1390   -0.0000 O   0  0  0  0  0  0  0  0  0  0  0  0
   11.6284   -5.1270   -0.0000 C   0  0  0  0  0  0  0  0  0  0  0  0
    8.9992   -6.6448   -0.0000 C   0  0  0  0  0  0  0  0  0  0  0  0
   12.9191   -4.3502   -0.0000 N   0  0  0  0  0  0  0  0  0  0  0  0
   11.6284   -6.6209   -0.0000 C   0  0  0  0  0  0  0  0  0  0  0  0
   12.9191   -5.8680   -0.0000 C   0  0  0  0  0  0  0  0  0  0  0  0
    7.6845   -7.3977   -0.0000 O   0  0  0  0  0  0  0  0  0  0  0  0
   10.3018   -7.3738   -0.0000 N   0  0  0  0  0  0  0  0  0  0  0  0
   14.2218   -5.0792   -0.0000 C   0  0  0  0  0  0  0  0  0  0  0  0
   10.3018   -8.8677   -0.0000 C   0  0  0  0  0  0  0  0  0  0  0  0
   15.5125   -4.3024   -0.0000 O   0  0  0  0  0  0  0  0  0  0  0  0
   14.2218   -6.5731   -0.0000 N   0  0  0  0  0  0  0  0  0  0  0  0
   15.5245   -7.3021   -0.0000 C   0  0  0  0  0  0  0  0  0  0  0  0
   15.5245   -8.7960   -0.0000 C   0  0  0  0  0  0  0  0  0  0  0  0
   16.8152   -6.5253   -0.0000 C   0  0  0  0  0  0  0  0  0  0  0  0
   16.8152   -9.5250   -0.0000 C   0  0  0  0  0  0  0  0  0  0  0  0
   18.1178   -7.2543   -0.0000 C   0  0  0  0  0  0  0  0  0  0  0  0
   16.8152  -11.0189   -0.0000 C   0  0  0  0  0  0  0  0  0  0  0  0
   18.1178   -8.7482   -0.0000 C   0  0  0  0  0  0  0  0  0  0  0  0
   18.0342  -11.8913   -0.0000 N   0  0  0  0  0  0  0  0  0  0  0  0
   15.5842  -11.9033   -0.0000 N   0  0  0  0  0  0  0  0  0  0  0  0
   17.5681  -13.3135   -0.0000 N   0  0  0  0  0  0  0  0  0  0  0  0
   16.0503  -13.3255   -0.0000 N   0  0  0  0  0  0  0  0  0  0  0  0
   14.1381  -11.4372   -0.0000 C   0  0  0  0  0  0  0  0  0  0  0  0
  1  2  1  0
  2  3  2  0
  2  4  1  0
  3  5  1  0
  4  6  2  0
  5  7  2  0
  7  8  1  0
  9  8  1  1
  9 10  1  0
  9 11  1  0
 10 12  1  0
 11 13  1  0
 12 14  1  0
 12 15  1  0
 15 16  1  0
 16 17  1  0
 16 18  1  0
 17 19  1  0
 18 20  1  0
 18 21  1  0
 18 22  1  0
 19 23  2  0
 19 24  1  0
 20 25  1  0
 24 26  1  0
 25 27  2  0
 25 28  1  0
 28 29  1  0
 29 30  2  0
 29 31  1  0
 30 32  1  0
 31 33  2  0
 32 34  1  0
 32 35  2  0
 34 36  2  0
 34 37  1  0
 36 38  1  0
 37 39  1  0
 37 40  1  0
  6  7  1  0
 13 14  1  0
 21 24  1  0
 33 35  1  0
 38 39  2  0
M  END
>  <MolRegNo>  (1) 
473560

>  <m>  (1) 
=

>  <Value>  (1) 
33000

>  <Unit>  (1) 
nM

>  <Type>  (1) 
IC50

>  <pValue>  (1) 
4.48

>  <Ligand Efficiency>  (1) 
0

>  <Binding Efficiency>  (1) 
0

>  <Surface Efficiency>  (1) 
0

>  <Assay Index>  (1) 
409097

>  <Assay Category>  (1) 


>  <Assay Organism>  (1) 


>  <Target ID>  (1) 
11365

>  <Target Name>  (1) 
Cytochrome P450 2D6

>  <Target Organism>  (1) 
Homo sapiens

>  <Target Description>  (1) 
Target is a single protein chain

>  <Sequence Accession>  (1) 
P10635

>  <Reference>  (1) 
Bioorg Med Chem Lett 19 (1), 96-99 (2009)

>  <Pubmed ID>  (1) 
19010676

>  <DOI>  (1) 
10.1016/j.bmcl.2008.11.002

$$$$
