4wnv_ligand_642
     RDKit          2D

 31 34  0  0  0  0  0  0  0  0999 V2000
    0.0000   -0.0000   -0.0000 Br  0  0  0  0  0  0  0  0  0  0  0  0
   -1.3147   -0.7343   -0.0000 C   0  0  0  0  0  0  0  0  0  0  0  0
   -1.3265   -2.2267   -0.0000 C   0  0  0  0  0  0  0  0  0  0  0  0
   -2.6294    0.0237   -0.0000 C   0  0  0  0  0  0  0  0  0  0  0  0
   -0.0355   -2.9610   -0.0000 O   0  0  0  0  0  0  0  0  0  0  0  0
   -2.6412   -2.9610   -0.0000 C   0  0  0  0  0  0  0  0  0  0  0  0
   -3.9322   -0.7106   -0.0000 C   0  0  0  0  0  0  0  0  0  0  0  0
   -0.0474   -4.4533   -0.0000 C   0  0  0  0  0  0  0  0  0  0  0  0
   -3.9440   -2.2030   -0.0000 C   0  0  0  0  0  0  0  0  0  0  0  0
   -5.2469    0.0474   -0.0000 C   0  0  0  0  0  0  0  0  0  0  0  0
   -1.3621   -5.1876   -0.0000 C   0  0  0  0  0  0  0  0  0  0  0  0
    1.2318   -5.1876   -0.0000 C   0  0  0  0  0  0  0  0  0  0  0  0
   -6.5615   -0.6869   -0.0000 N   0  0  0  0  0  0  0  0  0  0  0  0
   -1.3739   -6.6800   -0.0000 C   0  0  0  0  0  0  0  0  0  0  0  0
    1.2199   -6.6800   -0.0000 C   0  0  0  0  0  0  0  0  0  0  0  0
   -6.7274   -2.1674   -0.0000 C   0  0  0  0  0  0  0  0  0  0  0  0
   -7.9354   -0.0592   -0.0000 C   0  0  0  0  0  0  0  0  0  0  0  0
   -0.0829   -7.4143   -0.0000 N   0  0  0  0  0  0  0  0  0  0  0  0
   -8.2079   -2.4635   -0.0000 C   0  0  0  0  0  0  0  0  0  0  0  0
   -8.9540   -1.1607   -0.0000 C   0  0  0  0  0  0  0  0  0  0  0  0
   -8.9777   -3.7545   -0.0000 N   0  0  0  0  0  0  0  0  0  0  0  0
  -10.4819   -3.7308   -0.0000 C   0  0  0  0  0  0  0  0  0  0  0  0
  -11.2399   -2.4162   -0.0000 O   0  0  0  0  0  0  0  0  0  0  0  0
  -11.2517   -5.0218   -0.0000 C   0  0  0  0  0  0  0  0  0  0  0  0
  -12.7678   -4.9981   -0.0000 C   0  0  0  0  0  0  0  0  0  0  0  0
  -10.5174   -6.3128   -0.0000 C   0  0  0  0  0  0  0  0  0  0  0  0
  -13.5376   -6.2891   -0.0000 C   0  0  0  0  0  0  0  0  0  0  0  0
  -11.2873   -7.5920   -0.0000 C   0  0  0  0  0  0  0  0  0  0  0  0
  -15.0418   -6.2773   -0.0000 Cl  0  0  0  0  0  0  0  0  0  0  0  0
  -12.8033   -7.5801   -0.0000 C   0  0  0  0  0  0  0  0  0  0  0  0
  -13.5732   -8.8593   -0.0000 Cl  0  0  0  0  0  0  0  0  0  0  0  0
  1  2  1  0
  2  3  2  0
  2  4  1  0
  3  5  1  0
  3  6  1  0
  4  7  2  0
  5  8  1  0
  6  9  2  0
  7 10  1  0
  8 11  1  0
  8 12  1  0
 10 13  1  0
 11 14  1  0
 12 15  1  0
 13 16  1  0
 13 17  1  0
 14 18  1  0
 16 19  1  0
 17 20  1  0
 19 21  1  1
 21 22  1  0
 22 23  2  0
 22 24  1  0
 24 25  2  0
 24 26  1  0
 25 27  1  0
 26 28  2  0
 27 29  1  0
 27 30  2  0
 30 31  1  0
  7  9  1  0
 15 18  1  0
 19 20  1  0
 28 30  1  0
M  END
>  <MolRegNo>  (1) 
468871

>  <m>  (1) 
=

>  <Value>  (1) 
2200

>  <Unit>  (1) 
nM

>  <Type>  (1) 
IC50

>  <pValue>  (1) 
5.66

>  <Ligand Efficiency>  (1) 
0

>  <Binding Efficiency>  (1) 
0

>  <Surface Efficiency>  (1) 
0

>  <Assay Index>  (1) 
336593

>  <Assay Category>  (1) 


>  <Assay Organism>  (1) 


>  <Target ID>  (1) 
11365

>  <Target Name>  (1) 
Cytochrome P450 2D6

>  <Target Organism>  (1) 
Homo sapiens

>  <Target Description>  (1) 
Target is a single protein chain

>  <Sequence Accession>  (1) 
P10635

>  <Reference>  (1) 
Bioorg Med Chem Lett 18 (14), 3950-3954 (2008)

>  <Pubmed ID>  (1) 
18573659

>  <DOI>  (1) 
10.1016/j.bmcl.2008.06.019

$$$$
