4wnv_ligand_601
     RDKit          2D

 37 40  0  0  0  0  0  0  0  0999 V2000
    0.0000   -0.0000   -0.0000 O   0  0  0  0  0  0  0  0  0  0  0  0
   -0.0118    1.5131   -0.0000 C   0  0  0  0  0  0  0  0  0  0  0  0
    1.2767    2.2696   -0.0000 C   0  0  0  0  0  0  0  0  0  0  0  0
   -1.3240    2.2696   -0.0000 C   0  0  0  0  0  0  0  0  0  0  0  0
    2.5652    1.5367   -0.0000 O   0  0  0  0  0  0  0  0  0  0  0  0
    1.2649    3.7827   -0.0000 C   0  0  0  0  0  0  0  0  0  0  0  0
   -1.3358    3.7827   -0.0000 C   0  0  0  0  0  0  0  0  0  0  0  0
   -2.6361    1.5367   -0.0000 C   0  0  0  0  0  0  0  0  0  0  0  0
    2.4824    0.0473   -0.0000 C   0  0  0  0  0  0  0  0  0  0  0  0
   -0.0473    4.5393   -0.0000 O   0  0  0  0  0  0  0  0  0  0  0  0
    2.5534    4.5393   -0.0000 C   0  0  0  0  0  0  0  0  0  0  0  0
   -2.6479    4.5393   -0.0000 C   0  0  0  0  0  0  0  0  0  0  0  0
   -2.6479    0.0473   -0.0000 O   0  0  0  0  0  0  0  0  0  0  0  0
   -3.9482    2.2933   -0.0000 C   0  0  0  0  0  0  0  0  0  0  0  0
    1.1348   -0.6383   -0.0000 O   0  0  0  0  0  0  0  0  0  0  0  0
    3.7355   -0.7447   -0.0000 C   0  0  0  0  0  0  0  0  0  0  0  0
    2.5415    6.0524   -0.0000 C   0  0  0  0  0  0  0  0  0  0  0  0
    3.8419    3.8064   -0.0000 C   0  0  0  0  0  0  0  0  0  0  0  0
   -3.9601    3.8064   -0.0000 C   0  0  0  0  0  0  0  0  0  0  0  0
    1.0521   -2.1278   -0.0000 C   0  0  0  0  0  0  0  0  0  0  0  0
    5.0594   -0.0355   -0.0000 O   0  0  0  0  0  0  0  0  0  0  0  0
    3.6527   -2.2342   -0.0000 C   0  0  0  0  0  0  0  0  0  0  0  0
    3.8300    6.8089   -0.0000 C   0  0  0  0  0  0  0  0  0  0  0  0
    5.1303    4.5629   -0.0000 C   0  0  0  0  0  0  0  0  0  0  0  0
   -5.2722    4.5629   -0.0000 O   0  0  0  0  0  0  0  0  0  0  0  0
    2.3051   -2.9198   -0.0000 C   0  0  0  0  0  0  0  0  0  0  0  0
   -0.2837   -2.8016   -0.0000 C   0  0  0  0  0  0  0  0  0  0  0  0
    4.9057   -3.0262   -0.0000 O   0  0  0  0  0  0  0  0  0  0  0  0
    5.1185    6.0760   -0.0000 C   0  0  0  0  0  0  0  0  0  0  0  0
    2.2342   -4.3974   -0.0000 O   0  0  0  0  0  0  0  0  0  0  0  0
    6.2297   -2.3169   -0.0000 C   0  0  0  0  0  0  0  0  0  0  0  0
    6.4070    6.8326   -0.0000 O   0  0  0  0  0  0  0  0  0  0  0  0
    0.8866   -5.0831   -0.0000 C   0  0  0  0  0  0  0  0  0  0  0  0
    6.2888   -0.8038   -0.0000 O   0  0  0  0  0  0  0  0  0  0  0  0
    7.4827   -3.1089   -0.0000 C   0  0  0  0  0  0  0  0  0  0  0  0
    0.8157   -6.5725   -0.0000 O   0  0  0  0  0  0  0  0  0  0  0  0
   -0.3901   -4.2674   -0.0000 C   0  0  0  0  0  0  0  0  0  0  0  0
  1  2  2  0
  2  3  1  0
  2  4  1  0
  3  5  1  0
  3  6  2  0
  4  7  2  0
  4  8  1  0
  9  5  1  6
  6 10  1  0
  6 11  1  0
  7 12  1  0
  8 13  1  0
  8 14  2  0
  9 15  1  0
  9 16  1  0
 11 17  2  0
 11 18  1  0
 12 19  2  0
 15 20  1  0
 16 21  1  1
 16 22  1  0
 17 23  1  0
 18 24  2  0
 19 25  1  0
 20 26  1  0
 20 27  1  1
 22 28  1  1
 23 29  2  0
 26 30  1  6
 28 31  1  0
 29 32  1  0
 30 33  1  0
 31 34  2  0
 31 35  1  0
 33 36  2  0
 33 37  1  0
  7 10  1  0
 14 19  1  0
 22 26  1  0
 24 29  1  0
M  END
>  <MolRegNo>  (1) 
407240

>  <m>  (1) 
=

>  <Value>  (1) 
50500

>  <Unit>  (1) 
nM

>  <Type>  (1) 
IC50

>  <pValue>  (1) 
4.3

>  <Ligand Efficiency>  (1) 
0

>  <Binding Efficiency>  (1) 
0

>  <Surface Efficiency>  (1) 
0

>  <Assay Index>  (1) 
399811

>  <Assay Category>  (1) 


>  <Assay Organism>  (1) 
Homo sapiens

>  <Target ID>  (1) 
11365

>  <Target Name>  (1) 
Cytochrome P450 2D6

>  <Target Organism>  (1) 
Homo sapiens

>  <Target Description>  (1) 
Target is a single protein chain

>  <Sequence Accession>  (1) 
P10635

>  <Reference>  (1) 
J Nat Prod 67 (7), 1079-1083 (2004)

>  <Pubmed ID>  (1) 
15270556

>  <DOI>  (1) 
10.1021/np030556a

$$$$
