4wnv_ligand_379
     RDKit          2D

 35 38  0  0  0  0  0  0  0  0999 V2000
    0.0000   -0.0000   -0.0000 F   0  0  0  0  0  0  0  0  0  0  0  0
   -0.7571    1.3013   -0.0000 C   0  0  0  0  0  0  0  0  0  0  0  0
   -0.0237    2.6145   -0.0000 C   0  0  0  0  0  0  0  0  0  0  0  0
   -2.2596    1.3132   -0.0000 C   0  0  0  0  0  0  0  0  0  0  0  0
    1.4551    2.6381   -0.0000 F   0  0  0  0  0  0  0  0  0  0  0  0
   -0.7926    3.9158   -0.0000 C   0  0  0  0  0  0  0  0  0  0  0  0
   -3.0167    2.6145   -0.0000 C   0  0  0  0  0  0  0  0  0  0  0  0
   -2.2832    3.9158   -0.0000 C   0  0  0  0  0  0  0  0  0  0  0  0
   -4.5192    2.6263   -0.0000 C   0  0  0  0  0  0  0  0  0  0  0  0
   -5.8323    1.8928   -0.0000 O   0  0  0  0  0  0  0  0  0  0  0  0
   -4.5310    4.1406   -0.0000 C   0  0  0  0  0  0  0  0  0  0  0  0
   -4.5428    1.1475   -0.0000 C   0  0  0  0  0  0  0  0  0  0  0  0
   -7.1336    2.6500   -0.0000 C   0  0  0  0  0  0  0  0  0  0  0  0
   -3.2533    4.8977   -0.0000 O   0  0  0  0  0  0  0  0  0  0  0  0
   -5.8560    4.9096   -0.0000 N   0  0  0  0  0  0  0  0  0  0  0  0
   -7.1455    4.1643   -0.0000 C   0  0  0  0  0  0  0  0  0  0  0  0
   -8.4350    1.9165   -0.0000 C   0  0  0  0  0  0  0  0  0  0  0  0
   -5.8678    6.4120   -0.0000 C   0  0  0  0  0  0  0  0  0  0  0  0
   -8.4586    4.9096   -0.0000 C   0  0  0  0  0  0  0  0  0  0  0  0
   -9.7363    2.6736   -0.0000 C   0  0  0  0  0  0  0  0  0  0  0  0
   -4.5901    7.1691   -0.0000 C   0  0  0  0  0  0  0  0  0  0  0  0
   -9.7481    4.1761   -0.0000 C   0  0  0  0  0  0  0  0  0  0  0  0
   -4.6020    8.6716   -0.0000 C   0  0  0  0  0  0  0  0  0  0  0  0
  -11.0376    4.9332   -0.0000 C   0  0  0  0  0  0  0  0  0  0  0  0
   -3.3243    9.4287   -0.0000 O   0  0  0  0  0  0  0  0  0  0  0  0
  -12.3508    4.1997   -0.0000 C   0  0  0  0  0  0  0  0  0  0  0  0
  -11.0495    6.4475   -0.0000 C   0  0  0  0  0  0  0  0  0  0  0  0
   -3.3361   10.9312   -0.0000 C   0  0  0  0  0  0  0  0  0  0  0  0
  -13.6521    4.9569   -0.0000 N   0  0  0  0  0  0  0  0  0  0  0  0
  -12.3626    2.7210   -0.0000 N   0  0  0  0  0  0  0  0  0  0  0  0
  -12.3626    7.1928   -0.0000 N   0  0  0  0  0  0  0  0  0  0  0  0
   -9.7718    7.2046   -0.0000 C   0  0  0  0  0  0  0  0  0  0  0  0
  -13.6640    6.4593   -0.0000 C   0  0  0  0  0  0  0  0  0  0  0  0
   -9.7955    8.7071   -0.0000 C   0  0  0  0  0  0  0  0  0  0  0  0
  -14.9771    7.2165   -0.0000 N   0  0  0  0  0  0  0  0  0  0  0  0
  1  2  1  0
  2  3  2  0
  2  4  1  0
  3  5  1  0
  3  6  1  0
  4  7  2  0
  6  8  2  0
  7  9  1  0
  9 10  1  0
  9 11  1  0
  9 12  1  0
 10 13  1  0
 11 14  2  0
 11 15  1  0
 13 16  2  0
 13 17  1  0
 15 18  1  0
 16 19  1  0
 17 20  2  0
 18 21  1  0
 19 22  2  0
 21 23  1  0
 22 24  1  0
 23 25  1  0
 24 26  2  0
 24 27  1  0
 25 28  1  0
 26 29  1  0
 26 30  1  0
 27 31  2  0
 27 32  1  0
 29 33  2  0
 32 34  1  0
 33 35  1  0
  7  8  1  0
 15 16  1  0
 20 22  1  0
 31 33  1  0
M  END
>  <MolRegNo>  (1) 
405793

>  <m>  (1) 
=

>  <Value>  (1) 
5700

>  <Unit>  (1) 
nM

>  <Type>  (1) 
IC50

>  <pValue>  (1) 
5.24

>  <Ligand Efficiency>  (1) 
0

>  <Binding Efficiency>  (1) 
0

>  <Surface Efficiency>  (1) 
0

>  <Assay Index>  (1) 
297171

>  <Assay Category>  (1) 


>  <Assay Organism>  (1) 


>  <Target ID>  (1) 
11365

>  <Target Name>  (1) 
Cytochrome P450 2D6

>  <Target Organism>  (1) 
Homo sapiens

>  <Target Description>  (1) 
Target is a single protein chain

>  <Sequence Accession>  (1) 
P10635

>  <Reference>  (1) 
Bioorg Med Chem 15 (17), 5912-5949 (2007)

>  <Pubmed ID>  (1) 
17574423

>  <DOI>  (1) 
10.1016/j.bmc.2007.05.069

$$$$
