4wnv_ligand_895
     RDKit          2D

 28 31  0  0  0  0  0  0  0  0999 V2000
    0.0000   -0.0000   -0.0000 O   0  0  0  0  0  0  0  0  0  0  0  0
    0.7469    1.3041   -0.0000 C   0  0  0  0  0  0  0  0  0  0  0  0
    0.0000    2.6200   -0.0000 N   0  0  0  0  0  0  0  0  0  0  0  0
    2.2288    1.3041   -0.0000 C   0  0  0  0  0  0  0  0  0  0  0  0
    0.7469    3.9241   -0.0000 C   0  0  0  0  0  0  0  0  0  0  0  0
   -1.5056    2.6437   -0.0000 C   0  0  0  0  0  0  0  0  0  0  0  0
    2.9520    0.0237   -0.0000 C   0  0  0  0  0  0  0  0  0  0  0  0
    2.9638    2.6082   -0.0000 C   0  0  0  0  0  0  0  0  0  0  0  0
    0.0000    5.2400   -0.0000 C   0  0  0  0  0  0  0  0  0  0  0  0
   -2.2525    3.9478   -0.0000 C   0  0  0  0  0  0  0  0  0  0  0  0
    4.4339    0.0237   -0.0000 C   0  0  0  0  0  0  0  0  0  0  0  0
    4.4457    2.6082   -0.0000 C   0  0  0  0  0  0  0  0  0  0  0  0
   -1.5056    5.2519   -0.0000 N   0  0  0  0  0  0  0  0  0  0  0  0
    0.7469    6.5441   -0.0000 C   0  0  0  0  0  0  0  0  0  0  0  0
    5.1807    1.3278   -0.0000 C   0  0  0  0  0  0  0  0  0  0  0  0
   -2.2525    6.5678   -0.0000 C   0  0  0  0  0  0  0  0  0  0  0  0
   -1.5056    7.8719   -0.0000 O   0  0  0  0  0  0  0  0  0  0  0  0
   -3.7581    6.5915   -0.0000 C   0  0  0  0  0  0  0  0  0  0  0  0
   -4.5050    7.9075   -0.0000 O   0  0  0  0  0  0  0  0  0  0  0  0
   -4.5287    5.3112   -0.0000 C   0  0  0  0  0  0  0  0  0  0  0  0
   -5.9751    4.8607   -0.0000 C   0  0  0  0  0  0  0  0  0  0  0  0
   -3.6514    4.1019   -0.0000 C   0  0  0  0  0  0  0  0  0  0  0  0
   -5.9869    3.3669   -0.0000 C   0  0  0  0  0  0  0  0  0  0  0  0
   -7.2791    5.6194   -0.0000 C   0  0  0  0  0  0  0  0  0  0  0  0
   -4.5524    2.8927   -0.0000 N   0  0  0  0  0  0  0  0  0  0  0  0
   -7.2910    2.6319   -0.0000 N   0  0  0  0  0  0  0  0  0  0  0  0
   -8.5832    4.8844   -0.0000 C   0  0  0  0  0  0  0  0  0  0  0  0
   -8.5951    3.3906   -0.0000 C   0  0  0  0  0  0  0  0  0  0  0  0
  1  2  2  0
  2  3  1  0
  2  4  1  0
  3  5  1  0
  3  6  1  0
  4  7  2  0
  4  8  1  0
  5  9  1  0
  6 10  1  0
  7 11  1  0
  8 12  2  0
  9 13  1  0
  9 14  1  1
 11 15  2  0
 13 16  1  0
 16 17  2  0
 16 18  1  0
 18 19  2  0
 18 20  1  0
 20 21  1  0
 20 22  2  0
 21 23  2  0
 21 24  1  0
 22 25  1  0
 23 26  1  0
 24 27  2  0
 26 28  2  0
 10 13  1  0
 12 15  1  0
 23 25  1  0
 27 28  1  0
M  END
>  <MolRegNo>  (1) 
401782

>  <m>  (1) 
=

>  <Value>  (1) 
17000

>  <Unit>  (1) 
nM

>  <Type>  (1) 
IC50

>  <pValue>  (1) 
4.77

>  <Ligand Efficiency>  (1) 
0

>  <Binding Efficiency>  (1) 
0

>  <Surface Efficiency>  (1) 
0

>  <Assay Index>  (1) 
443137

>  <Assay Category>  (1) 


>  <Assay Organism>  (1) 


>  <Target ID>  (1) 
11365

>  <Target Name>  (1) 
Cytochrome P450 2D6

>  <Target Organism>  (1) 
Homo sapiens

>  <Target Description>  (1) 
Target is a single protein chain

>  <Sequence Accession>  (1) 
P10635

>  <Reference>  (1) 
J Med Chem 52 (23), 7778-7787 (2009)

>  <Pubmed ID>  (1) 
19769332

>  <DOI>  (1) 
10.1021/jm900843g

$$$$
