4wnv_ligand_324
     RDKit          2D

 29 31  0  0  0  0  0  0  0  0999 V2000
    0.0000   -0.0000   -0.0000 Cl  0  0  0  0  0  0  0  0  0  0  0  0
    1.2877    0.7631   -0.0000 C   0  0  0  0  0  0  0  0  0  0  0  0
    2.5754    0.0238   -0.0000 C   0  0  0  0  0  0  0  0  0  0  0  0
    1.2758    2.2893   -0.0000 C   0  0  0  0  0  0  0  0  0  0  0  0
    3.8751    0.7869   -0.0000 C   0  0  0  0  0  0  0  0  0  0  0  0
    2.5635    3.0524   -0.0000 C   0  0  0  0  0  0  0  0  0  0  0  0
    5.1628    0.0477   -0.0000 N   0  0  0  0  0  0  0  0  0  0  0  0
    3.8631    2.3131   -0.0000 C   0  0  0  0  0  0  0  0  0  0  0  0
    6.4505    0.8108   -0.0000 C   0  0  0  0  0  0  0  0  0  0  0  0
    6.4267    2.3250   -0.0000 N   0  0  0  0  0  0  0  0  0  0  0  0
    7.7382    0.0715   -0.0000 N   0  0  0  0  0  0  0  0  0  0  0  0
    7.7144    3.1001   -0.0000 C   0  0  0  0  0  0  0  0  0  0  0  0
    9.0259    0.8346   -0.0000 C   0  0  0  0  0  0  0  0  0  0  0  0
    9.0140    2.3608   -0.0000 C   0  0  0  0  0  0  0  0  0  0  0  0
    7.6905    4.6143   -0.0000 C   0  0  0  0  0  0  0  0  0  0  0  0
   10.3017    3.1239   -0.0000 C   0  0  0  0  0  0  0  0  0  0  0  0
    6.1763    4.6024   -0.0000 F   0  0  0  0  0  0  0  0  0  0  0  0
    9.1809    4.6382   -0.0000 F   0  0  0  0  0  0  0  0  0  0  0  0
    7.6667    6.1286   -0.0000 F   0  0  0  0  0  0  0  0  0  0  0  0
   10.2898    4.6382   -0.0000 O   0  0  0  0  0  0  0  0  0  0  0  0
   11.5894    2.3847   -0.0000 N   0  0  0  0  0  0  0  0  0  0  0  0
   12.8772    3.1478   -0.0000 C   0  0  0  0  0  0  0  0  0  0  0  0
   14.1649    2.4085   -0.0000 C   0  0  0  0  0  0  0  0  0  0  0  0
   14.1530    0.9181   -0.0000 C   0  0  0  0  0  0  0  0  0  0  0  0
   15.4407    3.1835   -0.0000 C   0  0  0  0  0  0  0  0  0  0  0  0
   15.4407    0.1788   -0.0000 C   0  0  0  0  0  0  0  0  0  0  0  0
   16.7284    2.4562   -0.0000 C   0  0  0  0  0  0  0  0  0  0  0  0
   16.7284    0.9419   -0.0000 C   0  0  0  0  0  0  0  0  0  0  0  0
   18.0280    0.2027   -0.0000 F   0  0  0  0  0  0  0  0  0  0  0  0
  1  2  1  0
  2  3  2  0
  2  4  1  0
  3  5  1  0
  4  6  2  0
  5  7  1  0
  5  8  2  0
  7  9  1  0
  9 10  2  0
  9 11  1  0
 10 12  1  0
 11 13  2  0
 12 14  2  0
 12 15  1  0
 14 16  1  0
 15 17  1  0
 15 18  1  0
 15 19  1  0
 16 20  2  0
 16 21  1  0
 21 22  1  0
 22 23  1  0
 23 24  2  0
 23 25  1  0
 24 26  1  0
 25 27  2  0
 26 28  2  0
 28 29  1  0
  6  8  1  0
 13 14  1  0
 27 28  1  0
M  END
>  <MolRegNo>  (1) 
378604

>  <m>  (1) 
=

>  <Value>  (1) 
1500

>  <Unit>  (1) 
nM

>  <Type>  (1) 
IC50

>  <pValue>  (1) 
5.82

>  <Ligand Efficiency>  (1) 
0

>  <Binding Efficiency>  (1) 
0

>  <Surface Efficiency>  (1) 
0

>  <Assay Index>  (1) 
285319

>  <Assay Category>  (1) 


>  <Assay Organism>  (1) 
Homo sapiens

>  <Target ID>  (1) 
11365

>  <Target Name>  (1) 
Cytochrome P450 2D6

>  <Target Organism>  (1) 
Homo sapiens

>  <Target Description>  (1) 
Target is a single protein chain

>  <Sequence Accession>  (1) 
P10635

>  <Reference>  (1) 
J Med Chem 50 (11), 2597-2600 (2007)

>  <Pubmed ID>  (1) 
17477516

>  <DOI>  (1) 
10.1021/jm061195+

$$$$
