4wnv_ligand_23
     RDKit          2D

 24 26  0  0  0  0  0  0  0  0999 V2000
    0.0000   -0.0000   -0.0000 S   0  0  0  0  0  0  0  0  0  0  0  0
   -1.0023    1.1202   -0.0000 C   0  0  0  0  0  0  0  0  0  0  0  0
   -0.4717   -1.4150   -0.0000 C   0  0  0  0  0  0  0  0  0  0  0  0
   -0.5542    2.5587   -0.0000 C   0  0  0  0  0  0  0  0  0  0  0  0
   -2.4644    0.8372   -0.0000 C   0  0  0  0  0  0  0  0  0  0  0  0
   -1.5565    3.6907   -0.0000 C   0  0  0  0  0  0  0  0  0  0  0  0
    0.8961    2.8771   -0.0000 C   0  0  0  0  0  0  0  0  0  0  0  0
   -3.4667    1.9574   -0.0000 C   0  0  0  0  0  0  0  0  0  0  0  0
   -3.0186    3.3959   -0.0000 C   0  0  0  0  0  0  0  0  0  0  0  0
    1.8748    1.7687   -0.0000 F   0  0  0  0  0  0  0  0  0  0  0  0
    1.3442    4.3157   -0.0000 F   0  0  0  0  0  0  0  0  0  0  0  0
    2.3347    3.2898   -0.0000 F   0  0  0  0  0  0  0  0  0  0  0  0
   -4.9760    1.9456   -0.0000 C   0  0  0  0  0  0  0  0  0  0  0  0
   -4.2567    4.2803   -0.0000 N   0  0  0  0  0  0  0  0  0  0  0  0
   -5.4476    3.3841   -0.0000 C   0  0  0  0  0  0  0  0  0  0  0  0
   -4.2685    5.7778   -0.0000 C   0  0  0  0  0  0  0  0  0  0  0  0
   -2.9832    6.5324   -0.0000 O   0  0  0  0  0  0  0  0  0  0  0  0
   -5.5773    6.5324   -0.0000 N   0  0  0  0  0  0  0  0  0  0  0  0
   -6.8744    5.7778   -0.0000 C   0  0  0  0  0  0  0  0  0  0  0  0
   -6.8862    4.2921   -0.0000 C   0  0  0  0  0  0  0  0  0  0  0  0
   -8.1714    6.5560   -0.0000 C   0  0  0  0  0  0  0  0  0  0  0  0
   -8.1832    3.5610   -0.0000 N   0  0  0  0  0  0  0  0  0  0  0  0
   -9.4803    5.8014   -0.0000 C   0  0  0  0  0  0  0  0  0  0  0  0
   -9.4921    4.3157   -0.0000 C   0  0  0  0  0  0  0  0  0  0  0  0
  1  2  1  0
  1  3  1  0
  2  4  2  0
  2  5  1  0
  4  6  1  0
  4  7  1  0
  5  8  2  0
  6  9  2  0
  7 10  1  0
  7 11  1  0
  7 12  1  0
  8 13  1  0
  9 14  1  0
 13 15  1  0
 14 16  1  0
 16 17  2  0
 16 18  1  0
 18 19  1  0
 19 20  2  0
 19 21  1  0
 20 22  1  0
 21 23  2  0
 22 24  2  0
  8  9  1  0
 14 15  1  0
 23 24  1  0
M  END
>  <MolRegNo>  (1) 
14101

>  <m>  (1) 
=

>  <Value>  (1) 
110

>  <Unit>  (1) 
nM

>  <Type>  (1) 
IC50

>  <pValue>  (1) 
6.96

>  <Ligand Efficiency>  (1) 
0

>  <Binding Efficiency>  (1) 
0

>  <Surface Efficiency>  (1) 
0

>  <Assay Index>  (1) 
51645

>  <Assay Category>  (1) 


>  <Assay Organism>  (1) 
Homo sapiens

>  <Target ID>  (1) 
11365

>  <Target Name>  (1) 
Cytochrome P450 2D6

>  <Target Organism>  (1) 
Homo sapiens

>  <Target Description>  (1) 
Target is a single protein chain

>  <Sequence Accession>  (1) 
P10635

>  <Reference>  (1) 
J Med Chem 40 (22), 3494-3496 (1997)

>  <Pubmed ID>  (1) 
9357513

>  <DOI>  (1) 
10.1021/jm970424c

$$$$
