4wnv_ligand_1028
     RDKit          2D

 23 25  0  0  0  0  0  0  0  0999 V2000
    0.0000   -0.0000   -0.0000 F   0  0  0  0  0  0  0  0  0  0  0  0
    1.2849   -0.7376   -0.0000 C   0  0  0  0  0  0  0  0  0  0  0  0
    1.2730   -2.2366   -0.0000 C   0  0  0  0  0  0  0  0  0  0  0  0
    2.5697    0.0357   -0.0000 C   0  0  0  0  0  0  0  0  0  0  0  0
    2.5697   -2.9861   -0.0000 C   0  0  0  0  0  0  0  0  0  0  0  0
    3.8665   -0.7019   -0.0000 C   0  0  0  0  0  0  0  0  0  0  0  0
    3.8665   -2.2128   -0.0000 C   0  0  0  0  0  0  0  0  0  0  0  0
    5.1633   -2.9504   -0.0000 C   0  0  0  0  0  0  0  0  0  0  0  0
    6.4601   -2.1771   -0.0000 N   0  0  0  0  0  0  0  0  0  0  0  0
    5.1514   -4.4495   -0.0000 C   0  0  0  0  0  0  0  0  0  0  0  0
    7.7568   -2.9267   -0.0000 C   0  0  0  0  0  0  0  0  0  0  0  0
    6.4363   -0.6662   -0.0000 C   0  0  0  0  0  0  0  0  0  0  0  0
    6.4482   -5.1871   -0.0000 C   0  0  0  0  0  0  0  0  0  0  0  0
    9.0417   -2.1652   -0.0000 C   0  0  0  0  0  0  0  0  0  0  0  0
    7.7330    0.1071   -0.0000 C   0  0  0  0  0  0  0  0  0  0  0  0
    6.4363   -6.6742   -0.0000 C   0  0  0  0  0  0  0  0  0  0  0  0
    7.7330   -4.4138   -0.0000 C   0  0  0  0  0  0  0  0  0  0  0  0
    9.0298   -0.6424   -0.0000 N   0  0  0  0  0  0  0  0  0  0  0  0
    5.1276   -7.4118   -0.0000 O   0  0  0  0  0  0  0  0  0  0  0  0
    7.7330   -7.4118   -0.0000 C   0  0  0  0  0  0  0  0  0  0  0  0
    9.0298   -5.1514   -0.0000 C   0  0  0  0  0  0  0  0  0  0  0  0
    3.8189   -6.6504   -0.0000 C   0  0  0  0  0  0  0  0  0  0  0  0
    9.0298   -6.6385   -0.0000 C   0  0  0  0  0  0  0  0  0  0  0  0
  1  2  1  0
  2  3  2  0
  2  4  1  0
  3  5  1  0
  4  6  2  0
  5  7  2  0
  7  8  1  0
  8  9  1  0
  8 10  1  0
  9 11  1  0
  9 12  1  0
 10 13  1  0
 11 14  1  0
 12 15  1  0
 13 16  2  0
 13 17  1  0
 14 18  1  0
 16 19  1  0
 16 20  1  0
 17 21  2  0
 19 22  1  0
 20 23  2  0
  6  7  1  0
 15 18  1  0
 21 23  1  0
M  END
>  <MolRegNo>  (1) 
632227

>  <m>  (1) 
=

>  <Value>  (1) 
12100

>  <Unit>  (1) 
nM

>  <Type>  (1) 
IC50

>  <pValue>  (1) 
4.92

>  <Ligand Efficiency>  (1) 
0

>  <Binding Efficiency>  (1) 
0

>  <Surface Efficiency>  (1) 
0

>  <Assay Index>  (1) 
480301

>  <Assay Category>  (1) 


>  <Assay Organism>  (1) 


>  <Target ID>  (1) 
11365

>  <Target Name>  (1) 
Cytochrome P450 2D6

>  <Target Organism>  (1) 
Homo sapiens

>  <Target Description>  (1) 
Target is a single protein chain

>  <Sequence Accession>  (1) 
P10635

>  <Reference>  (1) 
Bioorg Med Chem Lett 20 (12), 3788-3792 (2010)

>  <Pubmed ID>  (1) 
20471260

>  <DOI>  (1) 
10.1016/j.bmcl.2010.04.052

$$$$
