4wnv_ligand_260
     RDKit          2D

 31 34  0  0  0  0  0  0  0  0999 V2000
    0.0000   -0.0000   -0.0000 F   0  0  0  0  0  0  0  0  0  0  0  0
    0.0000    1.4980   -0.0000 C   0  0  0  0  0  0  0  0  0  0  0  0
    1.4273    1.9109   -0.0000 F   0  0  0  0  0  0  0  0  0  0  0  0
   -1.2975    0.7549   -0.0000 C   0  0  0  0  0  0  0  0  0  0  0  0
   -0.0236    3.0079   -0.0000 C   0  0  0  0  0  0  0  0  0  0  0  0
   -2.6068    1.4980   -0.0000 C   0  0  0  0  0  0  0  0  0  0  0  0
   -1.3329    3.7628   -0.0000 C   0  0  0  0  0  0  0  0  0  0  0  0
   -2.6186    3.0079   -0.0000 N   0  0  0  0  0  0  0  0  0  0  0  0
   -3.9279    3.7510   -0.0000 C   0  0  0  0  0  0  0  0  0  0  0  0
   -5.2254    3.0079   -0.0000 C   0  0  0  0  0  0  0  0  0  0  0  0
   -5.2254    1.5216   -0.0000 C   0  0  0  0  0  0  0  0  0  0  0  0
   -6.5465    3.7510   -0.0000 C   0  0  0  0  0  0  0  0  0  0  0  0
   -6.5230    0.7785   -0.0000 C   0  0  0  0  0  0  0  0  0  0  0  0
   -7.8441    2.9961   -0.0000 C   0  0  0  0  0  0  0  0  0  0  0  0
   -7.8441    1.5334   -0.0000 C   0  0  0  0  0  0  0  0  0  0  0  0
   -9.1416    0.7903   -0.0000 O   0  0  0  0  0  0  0  0  0  0  0  0
  -10.4509    1.5334   -0.0000 C   0  0  0  0  0  0  0  0  0  0  0  0
  -11.7484    0.7903   -0.0000 C   0  0  0  0  0  0  0  0  0  0  0  0
  -13.0577    1.5452   -0.0000 C   0  0  0  0  0  0  0  0  0  0  0  0
  -14.3670    0.8139   -0.0000 N   0  0  0  0  0  0  0  0  0  0  0  0
  -14.3788   -0.6723   -0.0000 C   0  0  0  0  0  0  0  0  0  0  0  0
  -15.6645    1.5688   -0.0000 C   0  0  0  0  0  0  0  0  0  0  0  0
  -15.6763   -1.4037   -0.0000 C   0  0  0  0  0  0  0  0  0  0  0  0
  -16.9738    0.8375   -0.0000 C   0  0  0  0  0  0  0  0  0  0  0  0
  -16.9856   -0.6488   -0.0000 C   0  0  0  0  0  0  0  0  0  0  0  0
  -18.2949   -1.3801   -0.0000 C   0  0  0  0  0  0  0  0  0  0  0  0
  -19.5924   -0.6252   -0.0000 C   0  0  0  0  0  0  0  0  0  0  0  0
  -20.9725   -1.2267   -0.0000 N   0  0  0  0  0  0  0  0  0  0  0  0
  -19.7694    0.8729   -0.0000 C   0  0  0  0  0  0  0  0  0  0  0  0
  -21.9870   -0.0944   -0.0000 C   0  0  0  0  0  0  0  0  0  0  0  0
  -21.2438    1.1914   -0.0000 N   0  0  0  0  0  0  0  0  0  0  0  0
  1  2  1  0
  2  3  1  0
  2  4  1  0
  2  5  1  0
  4  6  1  0
  5  7  1  0
  6  8  1  0
  8  9  1  0
  9 10  1  0
 10 11  2  0
 10 12  1  0
 11 13  1  0
 12 14  2  0
 13 15  2  0
 15 16  1  0
 16 17  1  0
 17 18  1  0
 18 19  1  0
 19 20  1  0
 20 21  1  0
 20 22  1  0
 21 23  1  0
 22 24  1  0
 23 25  1  0
 25 26  1  0
 26 27  1  0
 27 28  1  0
 27 29  2  0
 28 30  2  0
 29 31  1  0
  7  8  1  0
 14 15  1  0
 24 25  1  0
 30 31  1  0
M  END
>  <MolRegNo>  (1) 
339560

>  <m>  (1) 
=

>  <Value>  (1) 
6000

>  <Unit>  (1) 
nM

>  <Type>  (1) 
IC50

>  <pValue>  (1) 
5.22

>  <Ligand Efficiency>  (1) 
0

>  <Binding Efficiency>  (1) 
0

>  <Surface Efficiency>  (1) 
0

>  <Assay Index>  (1) 
257619

>  <Assay Category>  (1) 


>  <Assay Organism>  (1) 
Homo sapiens

>  <Target ID>  (1) 
11365

>  <Target Name>  (1) 
Cytochrome P450 2D6

>  <Target Organism>  (1) 
Homo sapiens

>  <Target Description>  (1) 
Target is a single protein chain

>  <Sequence Accession>  (1) 
P10635

>  <Reference>  (1) 
Bioorg Med Chem Lett 16 (4), 989-994 (2006)

>  <Pubmed ID>  (1) 
16297617

>  <DOI>  (1) 
10.1016/j.bmcl.2005.10.087

$$$$
