4wnv_ligand_799
     RDKit          2D

 28 31  0  0  0  0  0  0  0  0999 V2000
    0.0000   -0.0000   -0.0000 O   0  0  0  0  0  0  0  0  0  0  0  0
   -0.0119   -1.4960   -0.0000 C   0  0  0  0  0  0  0  0  0  0  0  0
   -1.3297   -2.2321   -0.0000 N   0  0  0  0  0  0  0  0  0  0  0  0
    1.2823   -2.2321   -0.0000 C   0  0  0  0  0  0  0  0  0  0  0  0
   -1.3416   -3.7280   -0.0000 C   0  0  0  0  0  0  0  0  0  0  0  0
   -2.6476   -1.4722   -0.0000 C   0  0  0  0  0  0  0  0  0  0  0  0
    2.5764   -1.4722   -0.0000 C   0  0  0  0  0  0  0  0  0  0  0  0
    1.2704   -3.7280   -0.0000 C   0  0  0  0  0  0  0  0  0  0  0  0
   -2.4220   -4.7847   -0.0000 C   0  0  0  0  0  0  0  0  0  0  0  0
   -3.9655   -2.2083   -0.0000 C   0  0  0  0  0  0  0  0  0  0  0  0
    3.8705   -2.2083   -0.0000 C   0  0  0  0  0  0  0  0  0  0  0  0
    2.5645   -4.4642   -0.0000 C   0  0  0  0  0  0  0  0  0  0  0  0
    3.8586   -3.7043   -0.0000 C   0  0  0  0  0  0  0  0  0  0  0  0
    5.1528   -4.4523   -0.0000 C   0  0  0  0  0  0  0  0  0  0  0  0
    6.4469   -3.6806   -0.0000 C   0  0  0  0  0  0  0  0  0  0  0  0
    5.1409   -5.9482   -0.0000 C   0  0  0  0  0  0  0  0  0  0  0  0
    7.7410   -4.4167   -0.0000 C   0  0  0  0  0  0  0  0  0  0  0  0
    6.4350   -2.1608   -0.0000 C   0  0  0  0  0  0  0  0  0  0  0  0
    6.4350   -6.6844   -0.0000 C   0  0  0  0  0  0  0  0  0  0  0  0
    7.7292   -5.9126   -0.0000 O   0  0  0  0  0  0  0  0  0  0  0  0
    9.0352   -3.6568   -0.0000 C   0  0  0  0  0  0  0  0  0  0  0  0
    7.7292   -1.4010   -0.0000 C   0  0  0  0  0  0  0  0  0  0  0  0
    7.7292   -7.4205   -0.0000 C   0  0  0  0  0  0  0  0  0  0  0  0
    5.1172   -7.4205   -0.0000 C   0  0  0  0  0  0  0  0  0  0  0  0
    9.0233   -2.1371   -0.0000 C   0  0  0  0  0  0  0  0  0  0  0  0
    7.7173   -8.9164   -0.0000 C   0  0  0  0  0  0  0  0  0  0  0  0
    5.1053   -8.9164   -0.0000 C   0  0  0  0  0  0  0  0  0  0  0  0
    6.3994   -9.6525   -0.0000 N   0  0  0  0  0  0  0  0  0  0  0  0
  1  2  2  0
  2  3  1  0
  2  4  1  0
  3  5  1  0
  3  6  1  0
  4  7  2  0
  4  8  1  0
  5  9  1  0
  6 10  1  0
  7 11  1  0
  8 12  2  0
 11 13  2  0
 14 13  1  1
 14 15  1  0
 14 16  1  0
 15 17  2  0
 15 18  1  0
 16 19  1  0
 17 20  1  0
 17 21  1  0
 18 22  2  0
 19 23  1  0
 19 24  1  0
 21 25  2  0
 23 26  1  0
 24 27  1  0
 26 28  1  0
 12 13  1  0
 19 20  1  0
 22 25  1  0
 27 28  1  0
M  END
>  <MolRegNo>  (1) 
566225

>  <m>  (1) 
=

>  <Value>  (1) 
7100

>  <Unit>  (1) 
nM

>  <Type>  (1) 
IC50

>  <pValue>  (1) 
5.15

>  <Ligand Efficiency>  (1) 
0

>  <Binding Efficiency>  (1) 
0

>  <Surface Efficiency>  (1) 
0

>  <Assay Index>  (1) 
428577

>  <Assay Category>  (1) 


>  <Assay Organism>  (1) 
Homo sapiens

>  <Target ID>  (1) 
11365

>  <Target Name>  (1) 
Cytochrome P450 2D6

>  <Target Organism>  (1) 
Homo sapiens

>  <Target Description>  (1) 
Target is a single protein chain

>  <Sequence Accession>  (1) 
P10635

>  <Reference>  (1) 
J Med Chem 52 (18), 5685-5702 (2009)

>  <Pubmed ID>  (1) 
19694468

>  <DOI>  (1) 
10.1021/jm900773n

$$$$
