4wnv_ligand_985
     RDKit          2D

 23 25  0  0  0  0  0  0  0  0999 V2000
    0.0000   -0.0000   -0.0000 O   0  0  0  0  0  0  0  0  0  0  0  0
   -0.0239   -1.4911   -0.0000 C   0  0  0  0  0  0  0  0  0  0  0  0
    1.3002    0.7515   -0.0000 C   0  0  0  0  0  0  0  0  0  0  0  0
   -1.3479   -2.2187   -0.0000 N   0  0  0  0  0  0  0  0  0  0  0  0
    1.2525   -2.2426   -0.0000 C   0  0  0  0  0  0  0  0  0  0  0  0
   -1.3718   -3.7098   -0.0000 C   0  0  0  0  0  0  0  0  0  0  0  0
    1.2406   -3.7336   -0.0000 N   0  0  0  0  0  0  0  0  0  0  0  0
    2.5527   -1.4911   -0.0000 C   0  0  0  0  0  0  0  0  0  0  0  0
   -0.0716   -4.4613   -0.0000 C   0  0  0  0  0  0  0  0  0  0  0  0
    3.9722   -1.9444   -0.0000 C   0  0  0  0  0  0  0  0  0  0  0  0
    5.1889   -1.0378   -0.0000 C   0  0  0  0  0  0  0  0  0  0  0  0
    4.4255   -3.3758   -0.0000 C   0  0  0  0  0  0  0  0  0  0  0  0
    6.4056   -1.9205   -0.0000 C   0  0  0  0  0  0  0  0  0  0  0  0
    5.3321    0.4652   -0.0000 C   0  0  0  0  0  0  0  0  0  0  0  0
    5.9285   -3.3638   -0.0000 C   0  0  0  0  0  0  0  0  0  0  0  0
    3.5308   -4.5806   -0.0000 C   0  0  0  0  0  0  0  0  0  0  0  0
    7.7655   -1.2883   -0.0000 C   0  0  0  0  0  0  0  0  0  0  0  0
    6.6919    1.0855   -0.0000 C   0  0  0  0  0  0  0  0  0  0  0  0
    4.1273   -5.9404   -0.0000 C   0  0  0  0  0  0  0  0  0  0  0  0
    7.9086    0.2147   -0.0000 C   0  0  0  0  0  0  0  0  0  0  0  0
    3.2326   -7.1452   -0.0000 N   0  0  0  0  0  0  0  0  0  0  0  0
    1.7296   -6.9782   -0.0000 C   0  0  0  0  0  0  0  0  0  0  0  0
    3.8291   -8.5050   -0.0000 C   0  0  0  0  0  0  0  0  0  0  0  0
  1  2  1  0
  1  3  1  0
  2  4  2  0
  2  5  1  0
  4  6  1  0
  5  7  2  0
  5  8  1  0
  6  9  2  0
  8 10  1  0
 10 11  1  0
 10 12  2  0
 11 13  2  0
 11 14  1  0
 12 15  1  0
 12 16  1  0
 13 17  1  0
 14 18  2  0
 16 19  1  0
 17 20  2  0
 19 21  1  0
 21 22  1  0
 21 23  1  0
  7  9  1  0
 13 15  1  0
 18 20  1  0
M  END
>  <MolRegNo>  (1) 
620957

>  <m>  (1) 
=

>  <Value>  (1) 
900

>  <Unit>  (1) 
nM

>  <Type>  (1) 
IC50

>  <pValue>  (1) 
6.05

>  <Ligand Efficiency>  (1) 
0

>  <Binding Efficiency>  (1) 
0

>  <Surface Efficiency>  (1) 
0

>  <Assay Index>  (1) 
470598

>  <Assay Category>  (1) 


>  <Assay Organism>  (1) 


>  <Target ID>  (1) 
11365

>  <Target Name>  (1) 
Cytochrome P450 2D6

>  <Target Organism>  (1) 
Homo sapiens

>  <Target Description>  (1) 
Target is a single protein chain

>  <Sequence Accession>  (1) 
P10635

>  <Reference>  (1) 
Bioorg Med Chem Lett 20 (8), 2629-2633 (2010)

>  <Pubmed ID>  (1) 
20227880

>  <DOI>  (1) 
10.1016/j.bmcl.2010.02.055

$$$$
