4wnv_ligand_29
     RDKit          2D

 16 17  0  0  0  0  0  0  0  0999 V2000
    0.0000   -0.0000   -0.0000 O   0  0  0  0  0  0  0  0  0  0  0  0
    1.2864    0.7601   -0.0000 C   0  0  0  0  0  0  0  0  0  0  0  0
   -1.3098    0.7601   -0.0000 C   0  0  0  0  0  0  0  0  0  0  0  0
    1.2747    2.2571   -0.0000 C   0  0  0  0  0  0  0  0  0  0  0  0
    2.5728    0.0117   -0.0000 C   0  0  0  0  0  0  0  0  0  0  0  0
   -2.6196    0.0234   -0.0000 C   0  0  0  0  0  0  0  0  0  0  0  0
    2.5611    3.0172   -0.0000 C   0  0  0  0  0  0  0  0  0  0  0  0
    3.8592    0.7718   -0.0000 C   0  0  0  0  0  0  0  0  0  0  0  0
   -3.9294    0.7835   -0.0000 C   0  0  0  0  0  0  0  0  0  0  0  0
    3.8592    2.2804   -0.0000 C   0  0  0  0  0  0  0  0  0  0  0  0
   -5.2509    0.0468   -0.0000 C   0  0  0  0  0  0  0  0  0  0  0  0
    5.1456    3.0523   -0.0000 N   0  0  0  0  0  0  0  0  0  0  0  0
    6.5022    2.4559   -0.0000 N   0  0  0  0  0  0  0  0  0  0  0  0
    5.2743    4.5492   -0.0000 C   0  0  0  0  0  0  0  0  0  0  0  0
    7.4962    3.5785   -0.0000 C   0  0  0  0  0  0  0  0  0  0  0  0
    6.7361    4.8766   -0.0000 N   0  0  0  0  0  0  0  0  0  0  0  0
  1  2  1  0
  1  3  1  0
  2  4  2  0
  2  5  1  0
  3  6  1  0
  4  7  1  0
  5  8  2  0
  6  9  1  0
  7 10  2  0
  9 11  1  0
 10 12  1  0
 12 13  1  0
 12 14  1  0
 13 15  2  0
 14 16  2  0
  8 10  1  0
 15 16  1  0
M  END
>  <MolRegNo>  (1) 
251563

>  <m>  (1) 
=

>  <Value>  (1) 
9540

>  <Unit>  (1) 
nM

>  <Type>  (1) 
IC50

>  <pValue>  (1) 
5.02

>  <Ligand Efficiency>  (1) 
0

>  <Binding Efficiency>  (1) 
0

>  <Surface Efficiency>  (1) 
0

>  <Assay Index>  (1) 
51627

>  <Assay Category>  (1) 


>  <Assay Organism>  (1) 


>  <Target ID>  (1) 
11365

>  <Target Name>  (1) 
Cytochrome P450 2D6

>  <Target Organism>  (1) 
Homo sapiens

>  <Target Description>  (1) 
Target is a single protein chain

>  <Sequence Accession>  (1) 
P10635

>  <Reference>  (1) 
J Med Chem 46 (25), 5416-5427 (2003)

>  <Pubmed ID>  (1) 
14640550

>  <DOI>  (1) 
10.1021/jm020557k

$$$$
