4wnv_ligand_54
     RDKit          2D

 56 61  0  0  1  0  0  0  0  0999 V2000
    0.0000   -0.0000   -0.0000 F   0  0  0  0  0  0  0  0  0  0  0  0
   -0.0118    1.5131   -0.0000 C   0  0  0  0  0  0  0  0  0  0  0  0
   -1.5249    1.5249   -0.0000 F   0  0  0  0  0  0  0  0  0  0  0  0
    1.4776    1.5249   -0.0000 F   0  0  0  0  0  0  0  0  0  0  0  0
   -0.0236    3.0262   -0.0000 C   0  0  0  0  0  0  0  0  0  0  0  0
    1.2648    3.7827   -0.0000 N   0  0  0  0  0  0  0  0  0  0  0  0
    1.2530    5.2958   -0.0000 C   0  0  0  0  0  0  0  0  0  0  0  0
   -0.0591    6.0523   -0.0000 O   0  0  0  0  0  0  0  0  0  0  0  0
    2.5415    6.0523   -0.0000 C   0  0  0  0  0  0  0  0  0  0  0  0
    3.8300    5.3194   -0.0000 N   0  0  0  0  0  0  0  0  0  0  0  0
    2.5297    7.5654   -0.0000 C   0  0  0  0  0  0  0  0  0  0  0  0
    5.1185    6.0760   -0.0000 C   0  0  0  0  0  0  0  0  0  0  0  0
    3.8182    3.8300   -0.0000 C   0  0  0  0  0  0  0  0  0  0  0  0
    3.8182    8.3220   -0.0000 N   0  0  0  0  0  0  0  0  0  0  0  0
    5.1067    7.5891   -0.0000 C   0  0  0  0  0  0  0  0  0  0  0  0
    5.1067    3.0971   -0.0000 C   0  0  0  0  0  0  0  0  0  0  0  0
    3.8064    9.8350   -0.0000 C   0  0  0  0  0  0  0  0  0  0  0  0
    6.3951    3.8536   -0.0000 O   0  0  0  0  0  0  0  0  0  0  0  0
    5.0948    1.6077   -0.0000 C   0  0  0  0  0  0  0  0  0  0  0  0
    3.7945   11.3481   -0.0000 C   0  0  0  0  0  0  0  0  0  0  0  0
    5.2958    9.8469   -0.0000 C   0  0  0  0  0  0  0  0  0  0  0  0
    2.2933    9.8469   -0.0000 C   0  0  0  0  0  0  0  0  0  0  0  0
    6.3833    0.8748   -0.0000 C   0  0  0  0  0  0  0  0  0  0  0  0
    2.5651   12.2465   -0.0000 O   0  0  0  0  0  0  0  0  0  0  0  0
    5.0003   12.2465   -0.0000 N   0  0  0  0  0  0  0  0  0  0  0  0
    6.3715   -0.6147   -0.0000 C   0  0  0  0  0  0  0  0  0  0  0  0
    7.6718    1.6313   -0.0000 C   0  0  0  0  0  0  0  0  0  0  0  0
    3.0143   13.6887   -0.0000 C   0  0  0  0  0  0  0  0  0  0  0  0
    4.5274   13.6887   -0.0000 C   0  0  0  0  0  0  0  0  0  0  0  0
    5.0594   -1.3594   -0.0000 O   0  0  0  0  0  0  0  0  0  0  0  0
    7.6600   -1.3594   -0.0000 N   0  0  0  0  0  0  0  0  0  0  0  0
    8.9603    0.8984   -0.0000 C   0  0  0  0  0  0  0  0  0  0  0  0
    2.1160   14.9181   -0.0000 C   0  0  0  0  0  0  0  0  0  0  0  0
    7.6482   -2.8489   -0.0000 C   0  0  0  0  0  0  0  0  0  0  0  0
   10.2488    1.6549   -0.0000 C   0  0  0  0  0  0  0  0  0  0  0  0
    8.9485   -0.5910   -0.0000 C   0  0  0  0  0  0  0  0  0  0  0  0
    0.6147   14.7762   -0.0000 C   0  0  0  0  0  0  0  0  0  0  0  0
    2.7188   16.3011   -0.0000 C   0  0  0  0  0  0  0  0  0  0  0  0
    8.9366   -3.5936   -0.0000 C   0  0  0  0  0  0  0  0  0  0  0  0
    6.3360   -3.5936   -0.0000 C   0  0  0  0  0  0  0  0  0  0  0  0
   11.5373    0.9220   -0.0000 C   0  0  0  0  0  0  0  0  0  0  0  0
   10.2370   -1.3358   -0.0000 C   0  0  0  0  0  0  0  0  0  0  0  0
   -0.2837   16.0056   -0.0000 N   0  0  0  0  0  0  0  0  0  0  0  0
    1.8204   17.5305   -0.0000 C   0  0  0  0  0  0  0  0  0  0  0  0
    8.9248   -5.0830   -0.0000 C   0  0  0  0  0  0  0  0  0  0  0  0
   10.2251   -2.8370   -0.0000 C   0  0  0  0  0  0  0  0  0  0  0  0
    5.0239   -2.8370   -0.0000 O   0  0  0  0  0  0  0  0  0  0  0  0
    6.3242   -5.0830   -0.0000 C   0  0  0  0  0  0  0  0  0  0  0  0
   11.5254   -0.5674   -0.0000 C   0  0  0  0  0  0  0  0  0  0  0  0
    0.3192   17.3886   -0.0000 C   0  0  0  0  0  0  0  0  0  0  0  0
    2.4233   18.9135   -0.0000 O   0  0  0  0  0  0  0  0  0  0  0  0
    7.6127   -5.8159   -0.0000 O   0  0  0  0  0  0  0  0  0  0  0  0
   10.2133   -5.8159   -0.0000 C   0  0  0  0  0  0  0  0  0  0  0  0
   11.5136   -3.5818   -0.0000 C   0  0  0  0  0  0  0  0  0  0  0  0
    1.5249   20.1429   -0.0000 C   0  0  0  0  0  0  0  0  0  0  0  0
   11.5018   -5.0594   -0.0000 C   0  0  0  0  0  0  0  0  0  0  0  0
  1  2  1  0
  2  3  1  0
  2  4  1  0
  2  5  1  0
  5  6  1  0
  6  7  1  0
  7  8  2  0
  9  7  1  6
  9 10  1  0
  9 11  1  0
 10 12  1  0
 10 13  1  0
 11 14  1  0
 12 15  1  0
 13 16  1  0
 14 17  1  0
 16 18  1  1
 16 19  1  0
 17 20  1  0
 17 21  1  0
 17 22  1  0
 23 19  1  1
 20 24  1  0
 20 25  2  0
 23 26  1  0
 23 27  1  0
 24 28  1  0
 25 29  1  0
 26 30  2  0
 26 31  1  0
 27 32  1  0
 28 33  1  0
 34 31  1  1
 32 35  2  0
 32 36  1  0
 33 37  2  0
 33 38  1  0
 34 39  1  0
 34 40  1  0
 35 41  1  0
 36 42  2  0
 37 43  1  0
 38 44  2  0
 39 45  2  0
 39 46  1  0
 40 47  1  1
 40 48  1  0
 41 49  2  0
 43 50  2  0
 44 51  1  0
 45 52  1  0
 45 53  1  0
 46 54  2  0
 51 55  1  0
 53 56  2  0
 14 15  1  0
 28 29  2  0
 42 49  1  0
 44 50  1  0
 48 52  1  0
 54 56  1  0
M  END
>  <MolRegNo>  (1) 
2038621

>  <m>  (1) 
=

>  <Value>  (1) 
8700

>  <Unit>  (1) 
nM

>  <Type>  (1) 
IC50

>  <pValue>  (1) 
5.06

>  <Ligand Efficiency>  (1) 
0

>  <Binding Efficiency>  (1) 
0

>  <Surface Efficiency>  (1) 
0

>  <Assay Index>  (1) 
51635

>  <Assay Category>  (1) 


>  <Assay Organism>  (1) 
Homo sapiens

>  <Target ID>  (1) 
11365

>  <Target Name>  (1) 
Cytochrome P450 2D6

>  <Target Organism>  (1) 
Homo sapiens

>  <Target Description>  (1) 
Target is a single protein chain

>  <Sequence Accession>  (1) 
P10635

>  <Reference>  (1) 
Bioorg Med Chem Lett 13 (15), 2573-2576 (2003)

>  <Pubmed ID>  (1) 
12852969

>  <DOI>  (1) 
10.1016/s0960-894x(03)00474-8

$$$$
