4wnv_ligand_281
     RDKit          2D

 25 29  0  0  0  0  0  0  0  0999 V2000
    0.0000   -0.0000   -0.0000 C   0  0  0  0  0  0  0  0  0  0  0  0
   -1.4998   -0.3266   -0.0000 C   0  0  0  0  0  0  0  0  0  0  0  0
    0.6410    1.3909   -0.0000 C   0  0  0  0  0  0  0  0  0  0  0  0
    0.7499   -1.3184   -0.0000 C   0  0  0  0  0  0  0  0  0  0  0  0
   -2.7093    0.6289   -0.0000 C   0  0  0  0  0  0  0  0  0  0  0  0
   -1.7296   -1.8264   -0.0000 C   0  0  0  0  0  0  0  0  0  0  0  0
   -0.0484    2.7819   -0.0000 C   0  0  0  0  0  0  0  0  0  0  0  0
    2.1529    1.3063   -0.0000 C   0  0  0  0  0  0  0  0  0  0  0  0
    2.2618   -1.3063   -0.0000 C   0  0  0  0  0  0  0  0  0  0  0  0
   -4.1366    0.0726   -0.0000 C   0  0  0  0  0  0  0  0  0  0  0  0
   -2.7335    2.1771   -0.0000 C   0  0  0  0  0  0  0  0  0  0  0  0
   -3.1568   -2.3828   -0.0000 C   0  0  0  0  0  0  0  0  0  0  0  0
    0.7862    4.0640   -0.0000 C   0  0  0  0  0  0  0  0  0  0  0  0
   -1.5361    3.1327   -0.0000 C   0  0  0  0  0  0  0  0  0  0  0  0
    2.9996    2.5884   -0.0000 C   0  0  0  0  0  0  0  0  0  0  0  0
    2.9996   -2.6247   -0.0000 C   0  0  0  0  0  0  0  0  0  0  0  0
    2.9996    0.0242   -0.0000 C   0  0  0  0  0  0  0  0  0  0  0  0
   -4.3664   -1.4272   -0.0000 C   0  0  0  0  0  0  0  0  0  0  0  0
    2.2981    3.9793   -0.0000 C   0  0  0  0  0  0  0  0  0  0  0  0
    4.5115   -2.6126   -0.0000 C   0  0  0  0  0  0  0  0  0  0  0  0
    4.5236    0.0242   -0.0000 C   0  0  0  0  0  0  0  0  0  0  0  0
    5.2735   -1.2821   -0.0000 C   0  0  0  0  0  0  0  0  0  0  0  0
    3.4592   -1.8989   -0.0000 C   0  0  0  0  0  0  0  0  0  0  0  0
    3.4592   -0.6289   -0.0000 C   0  0  0  0  0  0  0  0  0  0  0  0
    6.7854   -1.2579   -0.0000 C   0  0  0  0  0  0  0  0  0  0  0  0
  1  2  1  0
  1  3  1  0
  1  4  2  0
  2  5  1  0
  2  6  2  0
  3  7  2  0
  3  8  1  0
  4  9  1  0
  5 10  2  0
  5 11  1  0
  6 12  1  0
  7 13  1  0
  7 14  1  0
  8 15  2  0
  9 16  2  0
  9 17  1  0
 10 18  1  0
 13 19  2  0
 16 20  1  0
 17 21  1  0
 20 22  1  0
 20 23  1  0
 21 24  1  0
 22 25  1  0
 11 14  1  0
 12 18  2  0
 15 19  1  0
 21 22  1  0
 23 24  1  0
M  END
>  <MolRegNo>  (1) 
343329

>  <m>  (1) 
=

>  <Value>  (1) 
210

>  <Unit>  (1) 
nM

>  <Type>  (1) 
IC50

>  <pValue>  (1) 
6.68

>  <Ligand Efficiency>  (1) 
0

>  <Binding Efficiency>  (1) 
0

>  <Surface Efficiency>  (1) 
0

>  <Assay Index>  (1) 
259863

>  <Assay Category>  (1) 


>  <Assay Organism>  (1) 
Homo sapiens

>  <Target ID>  (1) 
11365

>  <Target Name>  (1) 
Cytochrome P450 2D6

>  <Target Organism>  (1) 
Homo sapiens

>  <Target Description>  (1) 
Target is a single protein chain

>  <Sequence Accession>  (1) 
P10635

>  <Reference>  (1) 
J Med Chem 49 (8), 2417-2430 (2006)

>  <Pubmed ID>  (1) 
16610785

>  <DOI>  (1) 
10.1021/jm0508538

$$$$
