4wnv_ligand_345
     RDKit          2D

 29 30  0  0  0  0  0  0  0  0999 V2000
    0.0000   -0.0000   -0.0000 F   0  0  0  0  0  0  0  0  0  0  0  0
    1.2924   -0.7420   -0.0000 C   0  0  0  0  0  0  0  0  0  0  0  0
    2.5849    0.0239   -0.0000 C   0  0  0  0  0  0  0  0  0  0  0  0
    1.2805   -2.2498   -0.0000 C   0  0  0  0  0  0  0  0  0  0  0  0
    2.5729    1.5438   -0.0000 F   0  0  0  0  0  0  0  0  0  0  0  0
    3.8773   -0.7180   -0.0000 C   0  0  0  0  0  0  0  0  0  0  0  0
    2.5729   -2.9918   -0.0000 C   0  0  0  0  0  0  0  0  0  0  0  0
    3.8654   -2.2259   -0.0000 C   0  0  0  0  0  0  0  0  0  0  0  0
    2.5610   -4.4877   -0.0000 F   0  0  0  0  0  0  0  0  0  0  0  0
    5.1578   -2.9678   -0.0000 C   0  0  0  0  0  0  0  0  0  0  0  0
    6.4503   -2.2020   -0.0000 C   0  0  0  0  0  0  0  0  0  0  0  0
    5.1459   -4.4637   -0.0000 C   0  0  0  0  0  0  0  0  0  0  0  0
    6.4383   -0.6821   -0.0000 N   0  0  0  0  0  0  0  0  0  0  0  0
    7.7427   -2.9559   -0.0000 C   0  0  0  0  0  0  0  0  0  0  0  0
    6.4383   -5.2057   -0.0000 C   0  0  0  0  0  0  0  0  0  0  0  0
    7.7308   -4.4518   -0.0000 N   0  0  0  0  0  0  0  0  0  0  0  0
    9.0232   -5.1937   -0.0000 C   0  0  0  0  0  0  0  0  0  0  0  0
   10.3157   -4.4278   -0.0000 N   0  0  0  0  0  0  0  0  0  0  0  0
    9.0112   -6.6896   -0.0000 C   0  0  0  0  0  0  0  0  0  0  0  0
   11.6081   -5.1698   -0.0000 C   0  0  0  0  0  0  0  0  0  0  0  0
   10.3037   -7.4316   -0.0000 C   0  0  0  0  0  0  0  0  0  0  0  0
   11.5961   -6.6777   -0.0000 N   0  0  0  0  0  0  0  0  0  0  0  0
   10.0524   -1.1488   -0.0000 F   0  0  0  0  0  0  0  0  0  0  0  0
   11.3568   -0.3949   -0.0000 C   0  0  0  0  0  0  0  0  0  0  0  0
   12.0988   -1.6874   -0.0000 F   0  0  0  0  0  0  0  0  0  0  0  0
   10.5909    0.9215   -0.0000 F   0  0  0  0  0  0  0  0  0  0  0  0
   12.6493    0.3710   -0.0000 C   0  0  0  0  0  0  0  0  0  0  0  0
   12.6373    1.8908   -0.0000 O   0  0  0  0  0  0  0  0  0  0  0  0
   13.9417   -0.3710   -0.0000 O   0  0  0  0  0  0  0  0  0  0  0  0
  1  2  1  0
  2  3  2  0
  2  4  1  0
  3  5  1  0
  3  6  1  0
  4  7  2  0
  6  8  2  0
  7  9  1  0
 10  8  1  6
 10 11  1  0
 10 12  1  0
 11 13  1  1
 11 14  1  0
 12 15  1  0
 14 16  1  0
 16 17  1  0
 17 18  2  0
 17 19  1  0
 18 20  1  0
 19 21  2  0
 20 22  2  0
 23 24  1  0
 24 25  1  0
 24 26  1  0
 24 27  1  0
 27 28  2  0
 27 29  1  0
  7  8  1  0
 15 16  1  0
 21 22  1  0
M  END
>  <MolRegNo>  (1) 
385292

>  <m>  (1) 
=

>  <Value>  (1) 
950

>  <Unit>  (1) 
nM

>  <Type>  (1) 
IC50

>  <pValue>  (1) 
6.02

>  <Ligand Efficiency>  (1) 
0

>  <Binding Efficiency>  (1) 
0

>  <Surface Efficiency>  (1) 
0

>  <Assay Index>  (1) 
288258

>  <Assay Category>  (1) 


>  <Assay Organism>  (1) 


>  <Target ID>  (1) 
11365

>  <Target Name>  (1) 
Cytochrome P450 2D6

>  <Target Organism>  (1) 
Homo sapiens

>  <Target Description>  (1) 
Target is a single protein chain

>  <Sequence Accession>  (1) 
P10635

>  <Reference>  (1) 
Bioorg Med Chem Lett 17 (16), 4579-4583 (2007)

>  <Pubmed ID>  (1) 
17562364

>  <DOI>  (1) 
10.1016/j.bmcl.2007.05.087

$$$$
