4wnv_ligand_817
     RDKit          2D

 22 24  0  0  0  0  0  0  0  0999 V2000
    0.0000   -0.0000   -0.0000 N   0  0  0  0  0  0  0  0  0  0  0  0
   -1.0295   -1.1385   -0.0000 C   0  0  0  0  0  0  0  0  0  0  0  0
    1.4897   -0.2907   -0.0000 C   0  0  0  0  0  0  0  0  0  0  0  0
   -0.5571   -2.5798   -0.0000 C   0  0  0  0  0  0  0  0  0  0  0  0
   -2.5435   -0.8115   -0.0000 C   0  0  0  0  0  0  0  0  0  0  0  0
    1.9621   -1.7320   -0.0000 C   0  0  0  0  0  0  0  0  0  0  0  0
    0.9326   -2.8705   -0.0000 C   0  0  0  0  0  0  0  0  0  0  0  0
   -3.0400    0.6540   -0.0000 C   0  0  0  0  0  0  0  0  0  0  0  0
   -3.3792   -1.7199   -0.0000 C   0  0  0  0  0  0  0  0  0  0  0  0
   -4.5056    1.1385   -0.0000 C   0  0  0  0  0  0  0  0  0  0  0  0
   -2.1559    1.9137   -0.0000 C   0  0  0  0  0  0  0  0  0  0  0  0
   -4.5177    2.6888   -0.0000 C   0  0  0  0  0  0  0  0  0  0  0  0
   -5.8500    0.3634   -0.0000 C   0  0  0  0  0  0  0  0  0  0  0  0
   -3.0643    3.1369   -0.0000 C   0  0  0  0  0  0  0  0  0  0  0  0
   -0.6298    1.9500   -0.0000 C   0  0  0  0  0  0  0  0  0  0  0  0
   -5.8621    3.4882   -0.0000 C   0  0  0  0  0  0  0  0  0  0  0  0
   -7.2065    1.1627   -0.0000 C   0  0  0  0  0  0  0  0  0  0  0  0
    0.1090    3.3065   -0.0000 C   0  0  0  0  0  0  0  0  0  0  0  0
   -7.2186    2.7130   -0.0000 C   0  0  0  0  0  0  0  0  0  0  0  0
    1.6351    3.3428   -0.0000 N   0  0  0  0  0  0  0  0  0  0  0  0
    2.2286    4.4329   -0.0000 C   0  0  0  0  0  0  0  0  0  0  0  0
    2.2528    2.3012   -0.0000 C   0  0  0  0  0  0  0  0  0  0  0  0
  1  2  2  0
  1  3  1  0
  2  4  1  0
  2  5  1  0
  3  6  2  0
  4  7  2  0
  5  8  1  0
  5  9  1  1
  8 10  1  0
  8 11  2  0
 10 12  2  0
 10 13  1  0
 11 14  1  0
 11 15  1  0
 12 16  1  0
 13 17  2  0
 15 18  1  0
 16 19  2  0
 18 20  1  0
 20 21  1  0
 20 22  1  0
  6  7  1  0
 12 14  1  0
 17 19  1  0
M  END
>  <MolRegNo>  (1) 
564418

>  <m>  (1) 
=

>  <Value>  (1) 
32500

>  <Unit>  (1) 
nM

>  <Type>  (1) 
IC50

>  <pValue>  (1) 
4.49

>  <Ligand Efficiency>  (1) 
0

>  <Binding Efficiency>  (1) 
0

>  <Surface Efficiency>  (1) 
0

>  <Assay Index>  (1) 
428514

>  <Assay Category>  (1) 


>  <Assay Organism>  (1) 


>  <Target ID>  (1) 
11365

>  <Target Name>  (1) 
Cytochrome P450 2D6

>  <Target Organism>  (1) 
Homo sapiens

>  <Target Description>  (1) 
Target is a single protein chain

>  <Sequence Accession>  (1) 
P10635

>  <Reference>  (1) 
J Med Chem 52 (17), 5307-5310 (2009)

>  <Pubmed ID>  (1) 
19663387

>  <DOI>  (1) 
10.1021/jm900933k

$$$$
