4wnv_ligand_608
     RDKit          2D

 31 34  0  0  0  0  0  0  0  0999 V2000
    0.0000   -0.0000   -0.0000 F   0  0  0  0  0  0  0  0  0  0  0  0
   -1.4530   -0.3746   -0.0000 C   0  0  0  0  0  0  0  0  0  0  0  0
   -2.5201    0.6925   -0.0000 C   0  0  0  0  0  0  0  0  0  0  0  0
   -1.8504   -1.8049   -0.0000 C   0  0  0  0  0  0  0  0  0  0  0  0
   -3.9731    0.3179   -0.0000 C   0  0  0  0  0  0  0  0  0  0  0  0
   -3.3034   -2.1796   -0.0000 C   0  0  0  0  0  0  0  0  0  0  0  0
   -5.0402    1.3849   -0.0000 N   0  0  0  0  0  0  0  0  0  0  0  0
   -4.3705   -1.1125   -0.0000 C   0  0  0  0  0  0  0  0  0  0  0  0
   -6.4933    1.0103   -0.0000 C   0  0  0  0  0  0  0  0  0  0  0  0
   -7.5603    2.0774   -0.0000 C   0  0  0  0  0  0  0  0  0  0  0  0
   -6.8906   -0.4200   -0.0000 C   0  0  0  0  0  0  0  0  0  0  0  0
   -9.0134    1.7028   -0.0000 C   0  0  0  0  0  0  0  0  0  0  0  0
   -8.3436   -0.7946   -0.0000 C   0  0  0  0  0  0  0  0  0  0  0  0
   -9.4107    0.2724   -0.0000 N   0  0  0  0  0  0  0  0  0  0  0  0
  -10.8637   -0.1022   -0.0000 C   0  0  0  0  0  0  0  0  0  0  0  0
  -11.2610   -1.5325   -0.0000 O   0  0  0  0  0  0  0  0  0  0  0  0
  -11.9308    0.9649   -0.0000 C   0  0  0  0  0  0  0  0  0  0  0  0
  -13.3838    0.5903   -0.0000 C   0  0  0  0  0  0  0  0  0  0  0  0
  -14.4509    1.6574   -0.0000 C   0  0  0  0  0  0  0  0  0  0  0  0
  -13.7811   -0.8400   -0.0000 C   0  0  0  0  0  0  0  0  0  0  0  0
  -15.9039    1.2828   -0.0000 C   0  0  0  0  0  0  0  0  0  0  0  0
  -15.2342   -1.2146   -0.0000 C   0  0  0  0  0  0  0  0  0  0  0  0
  -16.3013   -0.1476   -0.0000 C   0  0  0  0  0  0  0  0  0  0  0  0
  -17.7543   -0.5222   -0.0000 C   0  0  0  0  0  0  0  0  0  0  0  0
  -18.8214    0.5449   -0.0000 N   0  0  0  0  0  0  0  0  0  0  0  0
  -20.2744    0.1703   -0.0000 C   0  0  0  0  0  0  0  0  0  0  0  0
  -18.4468    1.9979   -0.0000 C   0  0  0  0  0  0  0  0  0  0  0  0
  -21.3415    1.2374   -0.0000 C   0  0  0  0  0  0  0  0  0  0  0  0
  -19.5138    3.0650   -0.0000 C   0  0  0  0  0  0  0  0  0  0  0  0
  -20.9669    2.6904   -0.0000 N   0  0  0  0  0  0  0  0  0  0  0  0
  -22.7945    0.8627   -0.0000 C   0  0  0  0  0  0  0  0  0  0  0  0
  1  2  1  0
  2  3  2  0
  2  4  1  0
  3  5  1  0
  4  6  2  0
  5  7  1  0
  5  8  2  0
  7  9  1  0
  9 10  1  0
  9 11  1  0
 10 12  1  0
 11 13  1  0
 12 14  1  0
 14 15  1  0
 15 16  2  0
 15 17  1  0
 17 18  1  0
 18 19  2  0
 18 20  1  0
 19 21  1  0
 20 22  2  0
 21 23  2  0
 23 24  1  0
 24 25  1  0
 25 26  1  0
 25 27  1  0
 26 28  1  0
 27 29  1  0
 28 30  1  0
 28 31  1  6
  6  8  1  0
 13 14  1  0
 22 23  1  0
 29 30  1  0
M  END
>  <MolRegNo>  (1) 
454842

>  <m>  (1) 
=

>  <Value>  (1) 
34000

>  <Unit>  (1) 
nM

>  <Type>  (1) 
IC50

>  <pValue>  (1) 
4.47

>  <Ligand Efficiency>  (1) 
0

>  <Binding Efficiency>  (1) 
0

>  <Surface Efficiency>  (1) 
0

>  <Assay Index>  (1) 
343971

>  <Assay Category>  (1) 


>  <Assay Organism>  (1) 
Homo sapiens

>  <Target ID>  (1) 
11365

>  <Target Name>  (1) 
Cytochrome P450 2D6

>  <Target Organism>  (1) 
Homo sapiens

>  <Target Description>  (1) 
Target is a single protein chain

>  <Sequence Accession>  (1) 
P10635

>  <Reference>  (1) 
J Med Chem 52 (4), 1180-1189 (2009)

>  <Pubmed ID>  (1) 
19191554

>  <DOI>  (1) 
10.1021/jm801332q

$$$$
