4wnv_ligand_935
     RDKit          2D

 33 36  0  0  1  0  0  0  0  0999 V2000
    0.0000   -0.0000   -0.0000 F   0  0  0  0  0  0  0  0  0  0  0  0
   -1.3083   -0.7374   -0.0000 C   0  0  0  0  0  0  0  0  0  0  0  0
   -1.3202   -2.2242   -0.0000 F   0  0  0  0  0  0  0  0  0  0  0  0
   -0.0238   -1.4630   -0.0000 F   0  0  0  0  0  0  0  0  0  0  0  0
   -2.6167    0.0238   -0.0000 O   0  0  0  0  0  0  0  0  0  0  0  0
   -3.9250   -0.7136   -0.0000 C   0  0  0  0  0  0  0  0  0  0  0  0
   -5.2334    0.0357   -0.0000 C   0  0  0  0  0  0  0  0  0  0  0  0
   -3.9369   -2.2123   -0.0000 C   0  0  0  0  0  0  0  0  0  0  0  0
   -6.5417   -0.7018   -0.0000 C   0  0  0  0  0  0  0  0  0  0  0  0
   -5.2453   -2.9497   -0.0000 C   0  0  0  0  0  0  0  0  0  0  0  0
   -6.5536   -2.1885   -0.0000 C   0  0  0  0  0  0  0  0  0  0  0  0
   -7.8501    0.0595   -0.0000 C   0  0  0  0  0  0  0  0  0  0  0  0
   -9.1584   -0.6780   -0.0000 N   0  0  0  0  0  0  0  0  0  0  0  0
  -10.4668    0.0833   -0.0000 C   0  0  0  0  0  0  0  0  0  0  0  0
   -9.1703   -2.1647   -0.0000 C   0  0  0  0  0  0  0  0  0  0  0  0
  -10.4787    1.5938   -0.0000 O   0  0  0  0  0  0  0  0  0  0  0  0
  -11.7751   -0.6542   -0.0000 C   0  0  0  0  0  0  0  0  0  0  0  0
   -7.9571   -3.0330   -0.0000 C   0  0  0  0  0  0  0  0  0  0  0  0
  -10.3954   -3.0330   -0.0000 C   0  0  0  0  0  0  0  0  0  0  0  0
  -13.0240    0.2141   -0.0000 N   0  0  0  0  0  0  0  0  0  0  0  0
  -12.2390   -2.0815   -0.0000 C   0  0  0  0  0  0  0  0  0  0  0  0
   -8.4329   -4.4484   -0.0000 C   0  0  0  0  0  0  0  0  0  0  0  0
   -9.9434   -4.4365   -0.0000 C   0  0  0  0  0  0  0  0  0  0  0  0
  -14.2491   -0.6780   -0.0000 C   0  0  0  0  0  0  0  0  0  0  0  0
  -13.7614   -2.0934   -0.0000 N   0  0  0  0  0  0  0  0  0  0  0  0
   -7.9928   -5.8638   -0.0000 C   0  0  0  0  0  0  0  0  0  0  0  0
  -10.4192   -5.8400   -0.0000 C   0  0  0  0  0  0  0  0  0  0  0  0
  -14.6416   -3.3066   -0.0000 C   0  0  0  0  0  0  0  0  0  0  0  0
   -9.2179   -6.7202   -0.0000 N   0  0  0  0  0  0  0  0  0  0  0  0
   -9.2417   -8.2069   -0.0000 C   0  0  0  0  0  0  0  0  0  0  0  0
  -10.5619   -8.9443   -0.0000 C   0  0  0  0  0  0  0  0  0  0  0  0
  -11.8703   -8.1712   -0.0000 F   0  0  0  0  0  0  0  0  0  0  0  0
  -10.5857  -10.4311   -0.0000 C   0  0  0  0  0  0  0  0  0  0  0  0
  1  2  1  0
  2  3  1  0
  2  4  1  0
  2  5  1  0
  5  6  1  0
  6  7  2  0
  6  8  1  0
  7  9  1  0
  8 10  2  0
  9 11  2  0
  9 12  1  0
 12 13  1  0
 13 14  1  0
 15 13  1  1
 14 16  2  0
 14 17  1  0
 15 18  1  0
 15 19  1  0
 17 20  1  0
 17 21  2  0
 22 18  1  1
 23 19  1  1
 20 24  2  0
 21 25  1  0
 22 26  1  0
 23 27  1  0
 25 28  1  0
 26 29  1  0
 29 30  1  0
 30 31  1  0
 31 32  1  0
 31 33  1  0
 10 11  1  0
 22 23  1  0
 24 25  1  0
 27 29  1  0
M  END
>  <MolRegNo>  (1) 
600579

>  <m>  (1) 
=

>  <Value>  (1) 
1300

>  <Unit>  (1) 
nM

>  <Type>  (1) 
IC50

>  <pValue>  (1) 
5.89

>  <Ligand Efficiency>  (1) 
0

>  <Binding Efficiency>  (1) 
0

>  <Surface Efficiency>  (1) 
0

>  <Assay Index>  (1) 
457653

>  <Assay Category>  (1) 


>  <Assay Organism>  (1) 


>  <Target ID>  (1) 
11365

>  <Target Name>  (1) 
Cytochrome P450 2D6

>  <Target Organism>  (1) 
Homo sapiens

>  <Target Description>  (1) 
Target is a single protein chain

>  <Sequence Accession>  (1) 
P10635

>  <Reference>  (1) 
Bioorg Med Chem Lett 20 (3), 907-911 (2010)

>  <Pubmed ID>  (1) 
20045321

>  <DOI>  (1) 
10.1016/j.bmcl.2009.12.071

$$$$
