4wnv_ligand_561
     RDKit          2D

 22 24  0  0  0  0  0  0  0  0999 V2000
    0.0000   -0.0000   -0.0000 F   0  0  0  0  0  0  0  0  0  0  0  0
    1.4488    0.0148   -0.0000 C   0  0  0  0  0  0  0  0  0  0  0  0
    2.1732   -1.2271   -0.0000 C   0  0  0  0  0  0  0  0  0  0  0  0
    2.1732    1.3010   -0.0000 C   0  0  0  0  0  0  0  0  0  0  0  0
    0.9314   -2.6759   -0.0000 O   0  0  0  0  0  0  0  0  0  0  0  0
    3.6221   -1.2271   -0.0000 C   0  0  0  0  0  0  0  0  0  0  0  0
    3.6221    1.3010   -0.0000 C   0  0  0  0  0  0  0  0  0  0  0  0
    1.2566   -4.5387   -0.0000 C   0  0  0  0  0  0  0  0  0  0  0  0
    4.3613    0.0444   -0.0000 C   0  0  0  0  0  0  0  0  0  0  0  0
    4.3465   -2.4837   -0.0000 C   0  0  0  0  0  0  0  0  0  0  0  0
   -0.0296   -5.2779   -0.0000 C   0  0  0  0  0  0  0  0  0  0  0  0
    2.5281   -5.2631   -0.0000 C   0  0  0  0  0  0  0  0  0  0  0  0
   -0.0296   -6.7415   -0.0000 C   0  0  0  0  0  0  0  0  0  0  0  0
   -1.3158   -4.5387   -0.0000 C   0  0  0  0  0  0  0  0  0  0  0  0
    2.5281   -6.7267   -0.0000 O   0  0  0  0  0  0  0  0  0  0  0  0
    3.7847   -4.5091   -0.0000 C   0  0  0  0  0  0  0  0  0  0  0  0
   -1.3158   -7.4659   -0.0000 C   0  0  0  0  0  0  0  0  0  0  0  0
    1.2419   -7.4659   -0.0000 C   0  0  0  0  0  0  0  0  0  0  0  0
   -2.6020   -5.2631   -0.0000 C   0  0  0  0  0  0  0  0  0  0  0  0
    5.0413   -5.2335   -0.0000 N   0  0  0  0  0  0  0  0  0  0  0  0
   -2.6020   -6.7119   -0.0000 C   0  0  0  0  0  0  0  0  0  0  0  0
    5.0265   -6.6824   -0.0000 C   0  0  0  0  0  0  0  0  0  0  0  0
  1  2  1  0
  2  3  2  0
  2  4  1  0
  3  5  1  0
  3  6  1  0
  4  7  2  0
  8  5  1  1
  6  9  2  0
  6 10  1  0
  8 11  1  0
  8 12  1  0
 11 13  2  0
 11 14  1  0
 12 15  1  0
 12 16  1  1
 13 17  1  0
 13 18  1  0
 14 19  2  0
 16 20  1  0
 17 21  2  0
 20 22  1  0
  7  9  1  0
 15 18  1  0
 19 21  1  0
M  END
>  <MolRegNo>  (1) 
511388

>  <m>  (1) 
=

>  <Value>  (1) 
310

>  <Unit>  (1) 
nM

>  <Type>  (1) 
IC50

>  <pValue>  (1) 
6.51

>  <Ligand Efficiency>  (1) 
0

>  <Binding Efficiency>  (1) 
0

>  <Surface Efficiency>  (1) 
0

>  <Assay Index>  (1) 
358939

>  <Assay Category>  (1) 


>  <Assay Organism>  (1) 


>  <Target ID>  (1) 
11365

>  <Target Name>  (1) 
Cytochrome P450 2D6

>  <Target Organism>  (1) 
Homo sapiens

>  <Target Description>  (1) 
Target is a single protein chain

>  <Sequence Accession>  (1) 
P10635

>  <Reference>  (1) 
Bioorg Med Chem Lett 18 (16), 4491-4494 (2008)

>  <Pubmed ID>  (1) 
18672364

>  <DOI>  (1) 
10.1016/j.bmcl.2008.07.049

$$$$
