4wnv_ligand_619
     RDKit          2D

 17 19  0  0  0  0  0  0  0  0999 V2000
    0.0000   -0.0000   -0.0000 N   0  0  0  0  0  0  0  0  0  0  0  0
   -1.4396    0.4720   -0.0000 C   0  0  0  0  0  0  0  0  0  0  0  0
    0.8732    1.2272   -0.0000 C   0  0  0  0  0  0  0  0  0  0  0  0
   -1.4514    1.9824   -0.0000 C   0  0  0  0  0  0  0  0  0  0  0  0
   -2.7376   -0.2596   -0.0000 C   0  0  0  0  0  0  0  0  0  0  0  0
   -0.0236    2.4544   -0.0000 C   0  0  0  0  0  0  0  0  0  0  0  0
   -2.7494    2.7494   -0.0000 C   0  0  0  0  0  0  0  0  0  0  0  0
   -4.0356    0.4956   -0.0000 C   0  0  0  0  0  0  0  0  0  0  0  0
   -4.0474    2.0060   -0.0000 C   0  0  0  0  0  0  0  0  0  0  0  0
   -5.3454    2.7612   -0.0000 C   0  0  0  0  0  0  0  0  0  0  0  0
   -6.7142    2.1712   -0.0000 C   0  0  0  0  0  0  0  0  0  0  0  0
   -5.5106    4.2480   -0.0000 C   0  0  0  0  0  0  0  0  0  0  0  0
   -4.0710    3.5282   -0.0000 C   0  0  0  0  0  0  0  0  0  0  0  0
   -7.7172    3.2922   -0.0000 N   0  0  0  0  0  0  0  0  0  0  0  0
   -6.9738    4.5666   -0.0000 C   0  0  0  0  0  0  0  0  0  0  0  0
   -4.0946    5.0268   -0.0000 C   0  0  0  0  0  0  0  0  0  0  0  0
   -2.8202    5.7938   -0.0000 C   0  0  0  0  0  0  0  0  0  0  0  0
  1  2  1  0
  1  3  1  0
  2  4  2  0
  2  5  1  0
  3  6  2  0
  4  7  1  0
  5  8  2  0
  7  9  2  0
  9 10  1  0
 10 11  1  0
 10 12  1  0
 10 13  1  0
 11 14  1  0
 12 15  1  0
 13 16  1  0
 16 17  1  0
  4  6  1  0
  8  9  1  0
 14 15  1  0
M  END
>  <MolRegNo>  (1) 
515311

>  <m>  (1) 
=

>  <Value>  (1) 
7500

>  <Unit>  (1) 
nM

>  <Type>  (1) 
IC50

>  <pValue>  (1) 
5.12

>  <Ligand Efficiency>  (1) 
0

>  <Binding Efficiency>  (1) 
0

>  <Surface Efficiency>  (1) 
0

>  <Assay Index>  (1) 
342264

>  <Assay Category>  (1) 


>  <Assay Organism>  (1) 


>  <Target ID>  (1) 
11365

>  <Target Name>  (1) 
Cytochrome P450 2D6

>  <Target Organism>  (1) 
Homo sapiens

>  <Target Description>  (1) 
Target is a single protein chain

>  <Sequence Accession>  (1) 
P10635

>  <Reference>  (1) 
Bioorg Med Chem Lett 18 (23), 6062-6066 (2008)

>  <Pubmed ID>  (1) 
18954985

>  <DOI>  (1) 
10.1016/j.bmcl.2008.10.025

$$$$
