4wnv_ligand_667
     RDKit          2D

 39 44  0  0  1  0  0  0  0  0999 V2000
    0.0000   -0.0000   -0.0000 F   0  0  0  0  0  0  0  0  0  0  0  0
   -0.0126   -1.5012   -0.0000 C   0  0  0  0  0  0  0  0  0  0  0  0
   -1.3372   -2.2455   -0.0000 C   0  0  0  0  0  0  0  0  0  0  0  0
    1.2867   -2.2455   -0.0000 C   0  0  0  0  0  0  0  0  0  0  0  0
   -1.3498   -3.7467   -0.0000 C   0  0  0  0  0  0  0  0  0  0  0  0
    1.2741   -3.7467   -0.0000 C   0  0  0  0  0  0  0  0  0  0  0  0
   -0.0505   -4.4910   -0.0000 C   0  0  0  0  0  0  0  0  0  0  0  0
   -2.6744   -4.4910   -0.0000 C   0  0  0  0  0  0  0  0  0  0  0  0
   -0.0631   -5.9922   -0.0000 C   0  0  0  0  0  0  0  0  0  0  0  0
   -2.6870   -5.9922   -0.0000 C   0  0  0  0  0  0  0  0  0  0  0  0
   -1.3877   -6.7364   -0.0000 C   0  0  0  0  0  0  0  0  0  0  0  0
   -1.4003   -8.2376   -0.0000 C   0  0  0  0  0  0  0  0  0  0  0  0
   -0.1009   -8.9819   -0.0000 N   0  0  0  0  0  0  0  0  0  0  0  0
    0.8326  -10.1425   -0.0000 C   0  0  0  0  0  0  0  0  0  0  0  0
    1.1732   -9.1712   -0.0000 C   0  0  0  0  0  0  0  0  0  0  0  0
    2.3716   -9.2595   -0.0000 C   0  0  0  0  0  0  0  0  0  0  0  0
    0.6308  -11.7320   -0.0000 C   0  0  0  0  0  0  0  0  0  0  0  0
    2.6365   -8.3007   -0.0000 C   0  0  0  0  0  0  0  0  0  0  0  0
    1.2867  -10.5714   -0.0000 C   0  0  0  0  0  0  0  0  0  0  0  0
    3.5701   -9.4739   -0.0000 C   0  0  0  0  0  0  0  0  0  0  0  0
    4.8568  -10.2308   -0.0000 N   0  0  0  0  0  0  0  0  0  0  0  0
    6.1688   -9.4865   -0.0000 C   0  0  0  0  0  0  0  0  0  0  0  0
    6.1814   -7.9601   -0.0000 O   0  0  0  0  0  0  0  0  0  0  0  0
    7.4555  -10.2434   -0.0000 C   0  0  0  0  0  0  0  0  0  0  0  0
    8.7675   -9.4991   -0.0000 C   0  0  0  0  0  0  0  0  0  0  0  0
    7.4177  -11.7446   -0.0000 C   0  0  0  0  0  0  0  0  0  0  0  0
    8.7801   -7.9727   -0.0000 C   0  0  0  0  0  0  0  0  0  0  0  0
   10.0542  -10.2560   -0.0000 C   0  0  0  0  0  0  0  0  0  0  0  0
    8.7044  -12.5015   -0.0000 C   0  0  0  0  0  0  0  0  0  0  0  0
    7.4681   -7.1906   -0.0000 O   0  0  0  0  0  0  0  0  0  0  0  0
   10.0921   -7.2284   -0.0000 N   0  0  0  0  0  0  0  0  0  0  0  0
   10.0164  -11.7572   -0.0000 C   0  0  0  0  0  0  0  0  0  0  0  0
   11.3788   -7.9853   -0.0000 C   0  0  0  0  0  0  0  0  0  0  0  0
   10.1047   -5.7020   -0.0000 C   0  0  0  0  0  0  0  0  0  0  0  0
   11.3409   -9.4865   -0.0000 C   0  0  0  0  0  0  0  0  0  0  0  0
   12.6908   -7.2410   -0.0000 C   0  0  0  0  0  0  0  0  0  0  0  0
   12.6277  -10.2434   -0.0000 C   0  0  0  0  0  0  0  0  0  0  0  0
   13.9775   -7.9980   -0.0000 C   0  0  0  0  0  0  0  0  0  0  0  0
   13.9396   -9.4991   -0.0000 C   0  0  0  0  0  0  0  0  0  0  0  0
  1  2  1  0
  2  3  2  0
  2  4  1  0
  3  5  1  0
  4  6  2  0
  5  7  2  0
  5  8  1  0
  7  9  1  0
  8 10  2  0
  9 11  2  0
 11 12  1  0
 12 13  1  0
 14 13  1  0
 15 13  1  0
 14 16  1  6
 14 17  1  0
 15 18  1  1
 15 19  1  0
 16 20  1  0
 20 21  1  1
 21 22  1  0
 22 23  2  0
 22 24  1  0
 24 25  1  0
 24 26  2  0
 25 27  1  0
 25 28  2  0
 26 29  1  0
 27 30  2  0
 27 31  1  0
 28 32  1  0
 31 33  1  0
 31 34  1  0
 33 35  1  0
 33 36  1  0
 35 37  1  0
 36 38  1  0
 37 39  1  0
  6  7  1  0
 10 11  1  0
 17 19  1  0
 18 20  1  0
 29 32  2  0
 38 39  1  0
M  END
>  <MolRegNo>  (1) 
1594468

>  <m>  (1) 
=

>  <Value>  (1) 
2900

>  <Unit>  (1) 
nM

>  <Type>  (1) 
IC50

>  <pValue>  (1) 
5.54

>  <Ligand Efficiency>  (1) 
0

>  <Binding Efficiency>  (1) 
0

>  <Surface Efficiency>  (1) 
0

>  <Assay Index>  (1) 
384135

>  <Assay Category>  (1) 


>  <Assay Organism>  (1) 
Homo sapiens

>  <Target ID>  (1) 
11365

>  <Target Name>  (1) 
Cytochrome P450 2D6

>  <Target Organism>  (1) 
Homo sapiens

>  <Target Description>  (1) 
Target is a single protein chain

>  <Sequence Accession>  (1) 
P10635

>  <Reference>  (1) 
Bioorg Med Chem 16 (18), 8607-8618 (2008)

>  <Pubmed ID>  (1) 
18752960

>  <DOI>  (1) 
10.1016/j.bmc.2008.08.006

$$$$
