4wnv_ligand_309
     RDKit          2D

 39 43  0  0  1  0  0  0  0  0999 V2000
    0.0000   -0.0000   -0.0000 S   0  0  0  0  0  0  0  0  0  0  0  0
   -1.0675   -1.0675   -0.0000 C   0  0  0  0  0  0  0  0  0  0  0  0
    1.3403   -0.6642   -0.0000 C   0  0  0  0  0  0  0  0  0  0  0  0
   -2.5620   -0.8303   -0.0000 C   0  0  0  0  0  0  0  0  0  0  0  0
   -0.3796   -2.3841   -0.0000 C   0  0  0  0  0  0  0  0  0  0  0  0
    2.6569    0.0474   -0.0000 C   0  0  0  0  0  0  0  0  0  0  0  0
    1.1031   -2.1350   -0.0000 C   0  0  0  0  0  0  0  0  0  0  0  0
   -3.1195    0.5812   -0.0000 C   0  0  0  0  0  0  0  0  0  0  0  0
   -3.4991   -1.9927   -0.0000 C   0  0  0  0  0  0  0  0  0  0  0  0
    2.7044    1.5657   -0.0000 O   0  0  0  0  0  0  0  0  0  0  0  0
    3.9142   -0.7473   -0.0000 N   0  0  0  0  0  0  0  0  0  0  0  0
   -4.6140    0.8184   -0.0000 C   0  0  0  0  0  0  0  0  0  0  0  0
   -2.1943    1.7673   -0.0000 C   0  0  0  0  0  0  0  0  0  0  0  0
   -4.9936   -1.7673   -0.0000 C   0  0  0  0  0  0  0  0  0  0  0  0
    5.2308   -0.0356   -0.0000 C   0  0  0  0  0  0  0  0  0  0  0  0
    3.8431   -2.2418   -0.0000 C   0  0  0  0  0  0  0  0  0  0  0  0
   -5.5630   -0.3440   -0.0000 C   0  0  0  0  0  0  0  0  0  0  0  0
    6.5712   -0.6880   -0.0000 C   0  0  0  0  0  0  0  0  0  0  0  0
    5.4443    1.4589   -0.0000 C   0  0  0  0  0  0  0  0  0  0  0  0
   -7.0575   -0.1186   -0.0000 O   0  0  0  0  0  0  0  0  0  0  0  0
    7.6031    0.4033   -0.0000 N   0  0  0  0  0  0  0  0  0  0  0  0
    6.9151    1.7199   -0.0000 C   0  0  0  0  0  0  0  0  0  0  0  0
   -8.0064   -1.2810   -0.0000 C   0  0  0  0  0  0  0  0  0  0  0  0
    9.0739    0.1898   -0.0000 C   0  0  0  0  0  0  0  0  0  0  0  0
    9.9991    1.3759   -0.0000 O   0  0  0  0  0  0  0  0  0  0  0  0
    9.6195   -1.1980   -0.0000 N   0  0  0  0  0  0  0  0  0  0  0  0
   11.0666   -1.5657   -0.0000 C   0  0  0  0  0  0  0  0  0  0  0  0
    8.8011   -2.4553   -0.0000 C   0  0  0  0  0  0  0  0  0  0  0  0
   11.1615   -3.0484   -0.0000 C   0  0  0  0  0  0  0  0  0  0  0  0
    9.7500   -3.6058   -0.0000 C   0  0  0  0  0  0  0  0  0  0  0  0
   12.4188   -3.8431   -0.0000 N   0  0  0  0  0  0  0  0  0  0  0  0
   13.7354   -3.1314   -0.0000 C   0  0  0  0  0  0  0  0  0  0  0  0
   14.9927   -3.9380   -0.0000 C   0  0  0  0  0  0  0  0  0  0  0  0
   13.7828   -1.6250   -0.0000 C   0  0  0  0  0  0  0  0  0  0  0  0
   16.3093   -3.2263   -0.0000 C   0  0  0  0  0  0  0  0  0  0  0  0
   15.1113   -0.9133   -0.0000 C   0  0  0  0  0  0  0  0  0  0  0  0
   16.3686   -1.7080   -0.0000 C   0  0  0  0  0  0  0  0  0  0  0  0
   17.6496   -2.4434   -0.0000 C   0  0  0  0  0  0  0  0  0  0  0  0
   17.1040   -0.4033   -0.0000 C   0  0  0  0  0  0  0  0  0  0  0  0
  1  2  1  0
  1  3  1  0
  2  4  1  0
  2  5  2  0
  3  6  1  0
  3  7  2  0
  4  8  2  0
  4  9  1  0
  6 10  2  0
  6 11  1  0
  8 12  1  0
  8 13  1  0
  9 14  2  0
 15 11  1  1
 11 16  1  0
 12 17  2  0
 15 18  1  0
 15 19  1  0
 17 20  1  0
 18 21  1  0
 19 22  1  0
 20 23  1  0
 21 24  1  0
 24 25  2  0
 24 26  1  0
 26 27  1  0
 26 28  1  0
 27 29  1  0
 28 30  1  0
 29 31  1  6
 31 32  1  0
 32 33  1  0
 32 34  1  0
 33 35  1  0
 34 36  1  0
 35 37  1  0
 37 38  1  0
 37 39  1  0
  5  7  1  0
 14 17  1  0
 21 22  1  0
 29 30  1  0
 36 37  1  0
M  END
>  <MolRegNo>  (1) 
359593

>  <m>  (1) 
=

>  <Value>  (1) 
4500

>  <Unit>  (1) 
nM

>  <Type>  (1) 
IC50

>  <pValue>  (1) 
5.35

>  <Ligand Efficiency>  (1) 
0

>  <Binding Efficiency>  (1) 
0

>  <Surface Efficiency>  (1) 
0

>  <Assay Index>  (1) 
268140

>  <Assay Category>  (1) 


>  <Assay Organism>  (1) 
Homo sapiens

>  <Target ID>  (1) 
11365

>  <Target Name>  (1) 
Cytochrome P450 2D6

>  <Target Organism>  (1) 
Homo sapiens

>  <Target Description>  (1) 
Target is a single protein chain

>  <Sequence Accession>  (1) 
P10635

>  <Reference>  (1) 
Bioorg Med Chem Lett 16 (18), 4922-4930 (2006)

>  <Pubmed ID>  (1) 
16824755

>  <DOI>  (1) 
10.1016/j.bmcl.2006.06.049

$$$$
