4wnv_ligand_369
     RDKit          2D

 36 39  0  0  0  0  0  0  0  0999 V2000
    0.0000   -0.0000   -0.0000 F   0  0  0  0  0  0  0  0  0  0  0  0
   -0.0118    1.5047   -0.0000 C   0  0  0  0  0  0  0  0  0  0  0  0
    1.2677    2.2630   -0.0000 C   0  0  0  0  0  0  0  0  0  0  0  0
   -1.3151    2.2630   -0.0000 C   0  0  0  0  0  0  0  0  0  0  0  0
    1.2559    3.7795   -0.0000 C   0  0  0  0  0  0  0  0  0  0  0  0
   -1.3270    3.7677   -0.0000 C   0  0  0  0  0  0  0  0  0  0  0  0
    2.5355    4.5378   -0.0000 F   0  0  0  0  0  0  0  0  0  0  0  0
   -0.0474    4.5378   -0.0000 C   0  0  0  0  0  0  0  0  0  0  0  0
   -2.6302    4.5259   -0.0000 C   0  0  0  0  0  0  0  0  0  0  0  0
   -3.9335    3.7913   -0.0000 O   0  0  0  0  0  0  0  0  0  0  0  0
   -2.6421    6.0306   -0.0000 C   0  0  0  0  0  0  0  0  0  0  0  0
   -2.6539    3.0449   -0.0000 C   0  0  0  0  0  0  0  0  0  0  0  0
   -5.2368    4.5496   -0.0000 C   0  0  0  0  0  0  0  0  0  0  0  0
   -1.3625    6.7889   -0.0000 O   0  0  0  0  0  0  0  0  0  0  0  0
   -3.9454    6.7889   -0.0000 N   0  0  0  0  0  0  0  0  0  0  0  0
   -5.2486    6.0543   -0.0000 C   0  0  0  0  0  0  0  0  0  0  0  0
   -6.5401    3.8032   -0.0000 C   0  0  0  0  0  0  0  0  0  0  0  0
   -3.9572    8.2936   -0.0000 C   0  0  0  0  0  0  0  0  0  0  0  0
   -6.5519    6.8007   -0.0000 C   0  0  0  0  0  0  0  0  0  0  0  0
   -7.8434    4.5615   -0.0000 C   0  0  0  0  0  0  0  0  0  0  0  0
   -2.6776    9.0518   -0.0000 C   0  0  0  0  0  0  0  0  0  0  0  0
   -7.8434    6.0662   -0.0000 C   0  0  0  0  0  0  0  0  0  0  0  0
   -2.6895   10.5565   -0.0000 C   0  0  0  0  0  0  0  0  0  0  0  0
   -9.1466    6.8126   -0.0000 C   0  0  0  0  0  0  0  0  0  0  0  0
   -1.4099   11.3267   -0.0000 O   0  0  0  0  0  0  0  0  0  0  0  0
   -9.1585    8.3291   -0.0000 C   0  0  0  0  0  0  0  0  0  0  0  0
  -10.4617    6.0780   -0.0000 C   0  0  0  0  0  0  0  0  0  0  0  0
   -1.4218   12.8195   -0.0000 C   0  0  0  0  0  0  0  0  0  0  0  0
  -10.4736    9.0755   -0.0000 N   0  0  0  0  0  0  0  0  0  0  0  0
   -7.8789    9.0874   -0.0000 N   0  0  0  0  0  0  0  0  0  0  0  0
  -11.7650    6.8363   -0.0000 N   0  0  0  0  0  0  0  0  0  0  0  0
  -10.4736    4.5970   -0.0000 C   0  0  0  0  0  0  0  0  0  0  0  0
   -0.1422   13.5896   -0.0000 C   0  0  0  0  0  0  0  0  0  0  0  0
  -11.7769    8.3410   -0.0000 C   0  0  0  0  0  0  0  0  0  0  0  0
  -11.7769    3.8624   -0.0000 C   0  0  0  0  0  0  0  0  0  0  0  0
  -13.0801    9.0992   -0.0000 N   0  0  0  0  0  0  0  0  0  0  0  0
  1  2  1  0
  2  3  2  0
  2  4  1  0
  3  5  1  0
  4  6  2  0
  5  7  1  0
  5  8  2  0
  6  9  1  0
  9 10  1  0
  9 11  1  0
  9 12  1  0
 10 13  1  0
 11 14  2  0
 11 15  1  0
 13 16  2  0
 13 17  1  0
 15 18  1  0
 16 19  1  0
 17 20  2  0
 18 21  1  0
 19 22  2  0
 21 23  1  0
 22 24  1  0
 23 25  1  0
 24 26  2  0
 24 27  1  0
 25 28  1  0
 26 29  1  0
 26 30  1  0
 27 31  2  0
 27 32  1  0
 28 33  1  0
 29 34  2  0
 32 35  1  0
 34 36  1  0
  6  8  1  0
 15 16  1  0
 20 22  1  0
 31 34  1  0
M  END
>  <MolRegNo>  (1) 
405854

>  <m>  (1) 
=

>  <Value>  (1) 
20600

>  <Unit>  (1) 
nM

>  <Type>  (1) 
IC50

>  <pValue>  (1) 
4.69

>  <Ligand Efficiency>  (1) 
0

>  <Binding Efficiency>  (1) 
0

>  <Surface Efficiency>  (1) 
0

>  <Assay Index>  (1) 
297171

>  <Assay Category>  (1) 


>  <Assay Organism>  (1) 


>  <Target ID>  (1) 
11365

>  <Target Name>  (1) 
Cytochrome P450 2D6

>  <Target Organism>  (1) 
Homo sapiens

>  <Target Description>  (1) 
Target is a single protein chain

>  <Sequence Accession>  (1) 
P10635

>  <Reference>  (1) 
Bioorg Med Chem 15 (17), 5912-5949 (2007)

>  <Pubmed ID>  (1) 
17574423

>  <DOI>  (1) 
10.1016/j.bmc.2007.05.069

$$$$
