4wnv_ligand_76
     RDKit          2D

 18 19  0  0  0  0  0  0  0  0999 V2000
    0.0000   -0.0000   -0.0000 O   0  0  0  0  0  0  0  0  0  0  0  0
    1.2641    0.7797   -0.0000 C   0  0  0  0  0  0  0  0  0  0  0  0
   -1.3232    0.7443   -0.0000 C   0  0  0  0  0  0  0  0  0  0  0  0
    1.2287    2.2920   -0.0000 C   0  0  0  0  0  0  0  0  0  0  0  0
    2.5755    0.0473   -0.0000 C   0  0  0  0  0  0  0  0  0  0  0  0
   -2.6346   -0.0118   -0.0000 C   0  0  0  0  0  0  0  0  0  0  0  0
    2.5164    3.0599   -0.0000 C   0  0  0  0  0  0  0  0  0  0  0  0
    3.8515    0.8979   -0.0000 C   0  0  0  0  0  0  0  0  0  0  0  0
   -3.9460    0.7325   -0.0000 C   0  0  0  0  0  0  0  0  0  0  0  0
    3.8160    2.3392   -0.0000 C   0  0  0  0  0  0  0  0  0  0  0  0
   -5.2455   -0.0236   -0.0000 N   0  0  0  0  0  0  0  0  0  0  0  0
    5.0801    3.1190   -0.0000 N   0  0  0  0  0  0  0  0  0  0  0  0
   -6.5806    0.7207   -0.0000 C   0  0  0  0  0  0  0  0  0  0  0  0
   -5.2337   -1.5122   -0.0000 C   0  0  0  0  0  0  0  0  0  0  0  0
    5.2101    4.6312   -0.0000 C   0  0  0  0  0  0  0  0  0  0  0  0
    6.4506    2.5401   -0.0000 C   0  0  0  0  0  0  0  0  0  0  0  0
    6.6633    4.9738   -0.0000 N   0  0  0  0  0  0  0  0  0  0  0  0
    7.4194    3.6742   -0.0000 C   0  0  0  0  0  0  0  0  0  0  0  0
  1  2  1  0
  1  3  1  0
  2  4  2  0
  2  5  1  0
  3  6  1  0
  4  7  1  0
  5  8  2  0
  6  9  1  0
  7 10  2  0
  9 11  1  0
 10 12  1  0
 11 13  1  0
 11 14  1  0
 12 15  1  0
 12 16  1  0
 15 17  2  0
 16 18  2  0
  8 10  1  0
 17 18  1  0
M  END
>  <MolRegNo>  (1) 
186430

>  <m>  (1) 
=

>  <Value>  (1) 
400

>  <Unit>  (1) 
nM

>  <Type>  (1) 
IC50

>  <pValue>  (1) 
6.4

>  <Ligand Efficiency>  (1) 
0

>  <Binding Efficiency>  (1) 
0

>  <Surface Efficiency>  (1) 
0

>  <Assay Index>  (1) 
51639

>  <Assay Category>  (1) 


>  <Assay Organism>  (1) 
Homo sapiens

>  <Target ID>  (1) 
11365

>  <Target Name>  (1) 
Cytochrome P450 2D6

>  <Target Organism>  (1) 
Homo sapiens

>  <Target Description>  (1) 
Target is a single protein chain

>  <Sequence Accession>  (1) 
P10635

>  <Reference>  (1) 
Bioorg Med Chem Lett 14 (2), 333-336 (2004)

>  <Pubmed ID>  (1) 
14698153

>  <DOI>  (1) 
10.1016/j.bmcl.2003.11.005

$$$$
