4wnv_ligand_737
     RDKit          2D

 21 23  0  0  0  0  0  0  0  0999 V2000
    0.0000   -0.0000   -0.0000 O   0  0  0  0  0  0  0  0  0  0  0  0
   -1.0723   -1.0605   -0.0000 C   0  0  0  0  0  0  0  0  0  0  0  0
   -1.9679    0.1650   -0.0000 C   0  0  0  0  0  0  0  0  0  0  0  0
   -1.9679   -2.2743   -0.0000 C   0  0  0  0  0  0  0  0  0  0  0  0
    0.4124   -1.0488   -0.0000 C   0  0  0  0  0  0  0  0  0  0  0  0
   -3.4173   -0.2946   -0.0000 C   0  0  0  0  0  0  0  0  0  0  0  0
   -1.5201    1.6026   -0.0000 C   0  0  0  0  0  0  0  0  0  0  0  0
   -3.4173   -1.7911   -0.0000 C   0  0  0  0  0  0  0  0  0  0  0  0
    1.1548   -2.3332   -0.0000 N   0  0  0  0  0  0  0  0  0  0  0  0
   -4.7253    0.4596   -0.0000 C   0  0  0  0  0  0  0  0  0  0  0  0
   -0.0707    1.9207   -0.0000 C   0  0  0  0  0  0  0  0  0  0  0  0
   -4.7253   -2.5335   -0.0000 C   0  0  0  0  0  0  0  0  0  0  0  0
    2.6396   -2.3214   -0.0000 C   0  0  0  0  0  0  0  0  0  0  0  0
   -6.0333   -0.2828   -0.0000 C   0  0  0  0  0  0  0  0  0  0  0  0
    0.3653    3.3466   -0.0000 C   0  0  0  0  0  0  0  0  0  0  0  0
    0.9073    0.8131   -0.0000 C   0  0  0  0  0  0  0  0  0  0  0  0
   -6.0333   -1.7676   -0.0000 C   0  0  0  0  0  0  0  0  0  0  0  0
    1.8147    3.6765   -0.0000 C   0  0  0  0  0  0  0  0  0  0  0  0
   -0.6599    4.4660   -0.0000 C   0  0  0  0  0  0  0  0  0  0  0  0
    2.3567    1.1312   -0.0000 C   0  0  0  0  0  0  0  0  0  0  0  0
    2.8163    2.5689   -0.0000 C   0  0  0  0  0  0  0  0  0  0  0  0
  1  2  1  0
  2  3  1  0
  2  4  1  0
  2  5  1  0
  3  6  1  0
  3  7  1  0
  4  8  1  0
  5  9  1  0
  6 10  2  0
  7 11  1  0
  8 12  2  0
  9 13  1  0
 10 14  1  0
 11 15  2  0
 11 16  1  0
 12 17  1  0
 15 18  1  0
 15 19  1  0
 16 20  2  0
 18 21  2  0
  6  8  1  0
 14 17  2  0
 20 21  1  0
M  END
>  <MolRegNo>  (1) 
453377

>  <m>  (1) 
=

>  <Value>  (1) 
900

>  <Unit>  (1) 
nM

>  <Type>  (1) 
IC50

>  <pValue>  (1) 
6.05

>  <Ligand Efficiency>  (1) 
0

>  <Binding Efficiency>  (1) 
0

>  <Surface Efficiency>  (1) 
0

>  <Assay Index>  (1) 
407281

>  <Assay Category>  (1) 


>  <Assay Organism>  (1) 


>  <Target ID>  (1) 
11365

>  <Target Name>  (1) 
Cytochrome P450 2D6

>  <Target Organism>  (1) 
Homo sapiens

>  <Target Description>  (1) 
Target is a single protein chain

>  <Sequence Accession>  (1) 
P10635

>  <Reference>  (1) 
Bioorg Med Chem Lett 18 (23), 6151-6155 (2008)

>  <Pubmed ID>  (1) 
18954981

>  <DOI>  (1) 
10.1016/j.bmcl.2008.10.013

$$$$
