4wnv_ligand_823
     RDKit          2D

 22 24  0  0  0  0  0  0  0  0999 V2000
    0.0000   -0.0000   -0.0000 O   0  0  0  0  0  0  0  0  0  0  0  0
   -1.4717   -0.4622   -0.0000 C   0  0  0  0  0  0  0  0  0  0  0  0
    0.8879   -1.2041   -0.0000 C   0  0  0  0  0  0  0  0  0  0  0  0
   -1.4838   -1.9947   -0.0000 C   0  0  0  0  0  0  0  0  0  0  0  0
   -2.8217    0.3406   -0.0000 C   0  0  0  0  0  0  0  0  0  0  0  0
   -0.0243   -2.4447   -0.0000 C   0  0  0  0  0  0  0  0  0  0  0  0
    2.4203   -1.1676   -0.0000 C   0  0  0  0  0  0  0  0  0  0  0  0
   -2.8339   -2.7731   -0.0000 C   0  0  0  0  0  0  0  0  0  0  0  0
   -4.1839   -0.4379   -0.0000 C   0  0  0  0  0  0  0  0  0  0  0  0
    0.4500   -3.8920   -0.0000 C   0  0  0  0  0  0  0  0  0  0  0  0
    3.1623    0.1946   -0.0000 C   0  0  0  0  0  0  0  0  0  0  0  0
   -4.1961   -1.9703   -0.0000 C   0  0  0  0  0  0  0  0  0  0  0  0
    1.9460   -4.1961   -0.0000 C   0  0  0  0  0  0  0  0  0  0  0  0
   -0.3892   -4.8042   -0.0000 C   0  0  0  0  0  0  0  0  0  0  0  0
    4.6947    0.2311   -0.0000 N   0  0  0  0  0  0  0  0  0  0  0  0
    2.9555   -3.0285   -0.0000 N   0  0  0  0  0  0  0  0  0  0  0  0
    2.4203   -5.6434   -0.0000 C   0  0  0  0  0  0  0  0  0  0  0  0
    5.2907    1.3257   -0.0000 C   0  0  0  0  0  0  0  0  0  0  0  0
    5.3150   -0.8149   -0.0000 C   0  0  0  0  0  0  0  0  0  0  0  0
    4.4515   -3.3204   -0.0000 C   0  0  0  0  0  0  0  0  0  0  0  0
    3.9163   -5.9353   -0.0000 C   0  0  0  0  0  0  0  0  0  0  0  0
    4.9258   -4.7677   -0.0000 C   0  0  0  0  0  0  0  0  0  0  0  0
  1  2  1  0
  1  3  1  0
  2  4  2  0
  2  5  1  0
  3  6  2  0
  3  7  1  0
  4  8  1  0
  5  9  2  0
  6 10  1  0
  7 11  1  0
  8 12  2  0
 10 13  1  0
 10 14  1  1
 11 15  1  0
 13 16  2  0
 13 17  1  0
 15 18  1  0
 15 19  1  0
 16 20  1  0
 17 21  2  0
 20 22  2  0
  4  6  1  0
  9 12  1  0
 21 22  1  0
M  END
>  <MolRegNo>  (1) 
568070

>  <m>  (1) 
=

>  <Value>  (1) 
3300

>  <Unit>  (1) 
nM

>  <Type>  (1) 
IC50

>  <pValue>  (1) 
5.48

>  <Ligand Efficiency>  (1) 
0

>  <Binding Efficiency>  (1) 
0

>  <Surface Efficiency>  (1) 
0

>  <Assay Index>  (1) 
428514

>  <Assay Category>  (1) 


>  <Assay Organism>  (1) 


>  <Target ID>  (1) 
11365

>  <Target Name>  (1) 
Cytochrome P450 2D6

>  <Target Organism>  (1) 
Homo sapiens

>  <Target Description>  (1) 
Target is a single protein chain

>  <Sequence Accession>  (1) 
P10635

>  <Reference>  (1) 
J Med Chem 52 (17), 5307-5310 (2009)

>  <Pubmed ID>  (1) 
19663387

>  <DOI>  (1) 
10.1021/jm900933k

$$$$
