4wnv_ligand_757
     RDKit          2D

 30 33  0  0  0  0  0  0  0  0999 V2000
    0.0000   -0.0000   -0.0000 Cl  0  0  0  0  0  0  0  0  0  0  0  0
   -0.0119   -1.4831   -0.0000 C   0  0  0  0  0  0  0  0  0  0  0  0
   -1.3170   -2.2068   -0.0000 C   0  0  0  0  0  0  0  0  0  0  0  0
    1.2576   -2.2187   -0.0000 C   0  0  0  0  0  0  0  0  0  0  0  0
   -1.3407   -3.6899   -0.0000 C   0  0  0  0  0  0  0  0  0  0  0  0
   -2.6221   -1.4356   -0.0000 C   0  0  0  0  0  0  0  0  0  0  0  0
    1.2458   -3.7017   -0.0000 C   0  0  0  0  0  0  0  0  0  0  0  0
   -0.0712   -4.4374   -0.0000 C   0  0  0  0  0  0  0  0  0  0  0  0
   -3.9272   -2.1594   -0.0000 C   0  0  0  0  0  0  0  0  0  0  0  0
    2.5272   -4.4374   -0.0000 Cl  0  0  0  0  0  0  0  0  0  0  0  0
   -3.9509   -3.6424   -0.0000 O   0  0  0  0  0  0  0  0  0  0  0  0
   -5.2323   -1.3882   -0.0000 N   0  0  0  0  0  0  0  0  0  0  0  0
   -6.5374   -2.1119   -0.0000 C   0  0  0  0  0  0  0  0  0  0  0  0
   -5.2323    0.1186   -0.0000 C   0  0  0  0  0  0  0  0  0  0  0  0
   -7.8306   -1.3526   -0.0000 C   0  0  0  0  0  0  0  0  0  0  0  0
   -6.5374    0.8898   -0.0000 C   0  0  0  0  0  0  0  0  0  0  0  0
   -7.8306    0.1542   -0.0000 C   0  0  0  0  0  0  0  0  0  0  0  0
   -9.1357   -0.5932   -0.0000 O   0  0  0  0  0  0  0  0  0  0  0  0
   -7.8425    1.6729   -0.0000 C   0  0  0  0  0  0  0  0  0  0  0  0
  -10.4527    0.1661   -0.0000 C   0  0  0  0  0  0  0  0  0  0  0  0
   -9.1595    2.4322   -0.0000 C   0  0  0  0  0  0  0  0  0  0  0  0
  -10.4764    1.6848   -0.0000 C   0  0  0  0  0  0  0  0  0  0  0  0
  -11.7578   -0.5695   -0.0000 C   0  0  0  0  0  0  0  0  0  0  0  0
  -11.7815    2.4322   -0.0000 C   0  0  0  0  0  0  0  0  0  0  0  0
  -13.0629    0.1898   -0.0000 C   0  0  0  0  0  0  0  0  0  0  0  0
  -13.0866    1.6966   -0.0000 C   0  0  0  0  0  0  0  0  0  0  0  0
  -14.3917    2.4560   -0.0000 S   0  0  0  0  0  0  0  0  0  0  0  0
  -13.6561    3.7611   -0.0000 O   0  0  0  0  0  0  0  0  0  0  0  0
  -15.1392    1.1746   -0.0000 O   0  0  0  0  0  0  0  0  0  0  0  0
  -15.6968    3.2153   -0.0000 C   0  0  0  0  0  0  0  0  0  0  0  0
  1  2  1  0
  2  3  2  0
  2  4  1  0
  3  5  1  0
  3  6  1  0
  4  7  2  0
  5  8  2  0
  6  9  1  0
  7 10  1  0
  9 11  2  0
  9 12  1  0
 12 13  1  0
 12 14  1  0
 13 15  1  0
 14 16  1  0
 15 17  1  0
 17 18  1  0
 17 19  1  0
 18 20  1  0
 19 21  1  0
 20 22  2  0
 20 23  1  0
 22 24  1  0
 23 25  2  0
 24 26  2  0
 26 27  1  0
 27 28  2  0
 27 29  2  0
 27 30  1  0
  7  8  1  0
 16 17  1  0
 21 22  1  0
 25 26  1  0
M  END
>  <MolRegNo>  (1) 
501007

>  <m>  (1) 
=

>  <Value>  (1) 
10000

>  <Unit>  (1) 
nM

>  <Type>  (1) 
IC50

>  <pValue>  (1) 
5

>  <Ligand Efficiency>  (1) 
0

>  <Binding Efficiency>  (1) 
0

>  <Surface Efficiency>  (1) 
0

>  <Assay Index>  (1) 
372764

>  <Assay Category>  (1) 


>  <Assay Organism>  (1) 


>  <Target ID>  (1) 
11365

>  <Target Name>  (1) 
Cytochrome P450 2D6

>  <Target Organism>  (1) 
Homo sapiens

>  <Target Description>  (1) 
Target is a single protein chain

>  <Sequence Accession>  (1) 
P10635

>  <Reference>  (1) 
Bioorg Med Chem Lett 19 (13), 3398-3404 (2009)

>  <Pubmed ID>  (1) 
19481932

>  <DOI>  (1) 
10.1016/j.bmcl.2009.05.036

$$$$
