4wnv_ligand_496
     RDKit          2D

 36 39  0  0  1  0  0  0  0  0999 V2000
    0.0000   -0.0000   -0.0000 F   0  0  0  0  0  0  0  0  0  0  0  0
    1.4937   -0.0000   -0.0000 C   0  0  0  0  0  0  0  0  0  0  0  0
    2.2288   -1.2922   -0.0000 C   0  0  0  0  0  0  0  0  0  0  0  0
    2.2406    1.3041   -0.0000 C   0  0  0  0  0  0  0  0  0  0  0  0
    3.7225   -1.2922   -0.0000 C   0  0  0  0  0  0  0  0  0  0  0  0
    3.7225    1.3159   -0.0000 C   0  0  0  0  0  0  0  0  0  0  0  0
    4.4694    0.0237   -0.0000 C   0  0  0  0  0  0  0  0  0  0  0  0
    5.9631    0.0356   -0.0000 C   0  0  0  0  0  0  0  0  0  0  0  0
    6.7100    1.3515   -0.0000 C   0  0  0  0  0  0  0  0  0  0  0  0
    8.2038    1.3633   -0.0000 C   0  0  0  0  0  0  0  0  0  0  0  0
    5.9394    2.6674   -0.0000 C   0  0  0  0  0  0  0  0  0  0  0  0
    8.9506    2.6674   -0.0000 N   0  0  0  0  0  0  0  0  0  0  0  0
    6.6863    3.9833   -0.0000 C   0  0  0  0  0  0  0  0  0  0  0  0
   10.4444    2.6674   -0.0000 C   0  0  0  0  0  0  0  0  0  0  0  0
    8.1919    3.9833   -0.0000 C   0  0  0  0  0  0  0  0  0  0  0  0
   11.1912    3.9833   -0.0000 O   0  0  0  0  0  0  0  0  0  0  0  0
   11.1794    1.3752   -0.0000 C   0  0  0  0  0  0  0  0  0  0  0  0
   12.6731    1.3752   -0.0000 C   0  0  0  0  0  0  0  0  0  0  0  0
   13.4200    2.6911   -0.0000 N   0  0  0  0  0  0  0  0  0  0  0  0
   13.4082    0.0830   -0.0000 C   0  0  0  0  0  0  0  0  0  0  0  0
   14.9138    2.6911   -0.0000 C   0  0  0  0  0  0  0  0  0  0  0  0
   15.6488    1.3989   -0.0000 O   0  0  0  0  0  0  0  0  0  0  0  0
   15.6606    4.0070   -0.0000 N   0  0  0  0  0  0  0  0  0  0  0  0
   17.1544    4.0070   -0.0000 C   0  0  0  0  0  0  0  0  0  0  0  0
   17.8775    2.7148   -0.0000 C   0  0  0  0  0  0  0  0  0  0  0  0
   17.8894    5.3230   -0.0000 C   0  0  0  0  0  0  0  0  0  0  0  0
   19.3713    2.7148   -0.0000 C   0  0  0  0  0  0  0  0  0  0  0  0
   19.3831    5.3348   -0.0000 C   0  0  0  0  0  0  0  0  0  0  0  0
   20.1182    1.4226   -0.0000 C   0  0  0  0  0  0  0  0  0  0  0  0
   20.1182    4.0307   -0.0000 C   0  0  0  0  0  0  0  0  0  0  0  0
   20.1300    6.6507   -0.0000 C   0  0  0  0  0  0  0  0  0  0  0  0
   21.6119    1.2804   -0.0000 N   0  0  0  0  0  0  0  0  0  0  0  0
   19.5017    0.0593   -0.0000 N   0  0  0  0  0  0  0  0  0  0  0  0
   21.9201   -0.1778   -0.0000 N   0  0  0  0  0  0  0  0  0  0  0  0
   20.6161   -0.9366   -0.0000 N   0  0  0  0  0  0  0  0  0  0  0  0
   18.0198   -0.2490   -0.0000 C   0  0  0  0  0  0  0  0  0  0  0  0
  1  2  1  0
  2  3  2  0
  2  4  1  0
  3  5  1  0
  4  6  2  0
  5  7  2  0
  7  8  1  0
  9  8  1  6
  9 10  1  0
  9 11  1  0
 10 12  1  0
 11 13  1  0
 12 14  1  0
 12 15  1  0
 14 16  1  6
 14 17  1  0
 17 18  1  0
 18 19  1  0
 18 20  1  6
 19 21  1  0
 21 22  2  0
 21 23  1  0
 23 24  1  0
 24 25  2  0
 24 26  1  0
 25 27  1  0
 26 28  2  0
 27 29  1  0
 27 30  2  0
 28 31  1  0
 29 32  2  0
 29 33  1  0
 32 34  1  0
 33 35  1  0
 33 36  1  0
  6  7  1  0
 13 15  1  0
 28 30  1  0
 34 35  2  0
M  END
>  <MolRegNo>  (1) 
438120

>  <m>  (1) 
=

>  <Value>  (1) 
3500

>  <Unit>  (1) 
nM

>  <Type>  (1) 
IC50

>  <pValue>  (1) 
5.46

>  <Ligand Efficiency>  (1) 
0

>  <Binding Efficiency>  (1) 
0

>  <Surface Efficiency>  (1) 
0

>  <Assay Index>  (1) 
314783

>  <Assay Category>  (1) 


>  <Assay Organism>  (1) 


>  <Target ID>  (1) 
11365

>  <Target Name>  (1) 
Cytochrome P450 2D6

>  <Target Organism>  (1) 
Homo sapiens

>  <Target Description>  (1) 
Target is a single protein chain

>  <Sequence Accession>  (1) 
P10635

>  <Reference>  (1) 
Bioorg Med Chem Lett 18 (2), 576-585 (2008)

>  <Pubmed ID>  (1) 
18096386

>  <DOI>  (1) 
10.1016/j.bmcl.2007.11.067

$$$$
