4wnv_ligand_1009
     RDKit          2D

 23 25  0  0  0  0  0  0  0  0999 V2000
    0.0000   -0.0000   -0.0000 S   0  0  0  0  0  0  0  0  0  0  0  0
   -1.4436   -0.4534   -0.0000 C   0  0  0  0  0  0  0  0  0  0  0  0
    0.8829   -1.2050   -0.0000 C   0  0  0  0  0  0  0  0  0  0  0  0
   -1.4436   -1.9566   -0.0000 C   0  0  0  0  0  0  0  0  0  0  0  0
   -2.7560    0.2983   -0.0000 C   0  0  0  0  0  0  0  0  0  0  0  0
   -0.0119   -2.4338   -0.0000 C   0  0  0  0  0  0  0  0  0  0  0  0
    2.3742   -1.1931   -0.0000 C   0  0  0  0  0  0  0  0  0  0  0  0
   -2.7560   -2.6963   -0.0000 C   0  0  0  0  0  0  0  0  0  0  0  0
   -4.0683   -0.4414   -0.0000 C   0  0  0  0  0  0  0  0  0  0  0  0
    0.2983   -3.8894   -0.0000 C   0  0  0  0  0  0  0  0  0  0  0  0
    3.1139   -2.4816   -0.0000 C   0  0  0  0  0  0  0  0  0  0  0  0
   -4.0683   -1.9328   -0.0000 C   0  0  0  0  0  0  0  0  0  0  0  0
   -1.0022   -4.6529   -0.0000 C   0  0  0  0  0  0  0  0  0  0  0  0
    1.6822   -4.4143   -0.0000 C   0  0  0  0  0  0  0  0  0  0  0  0
    4.6052   -2.4696   -0.0000 N   0  0  0  0  0  0  0  0  0  0  0  0
   -2.3145   -3.9132   -0.0000 N   0  0  0  0  0  0  0  0  0  0  0  0
   -0.9902   -6.1323   -0.0000 C   0  0  0  0  0  0  0  0  0  0  0  0
    5.3449   -3.7581   -0.0000 C   0  0  0  0  0  0  0  0  0  0  0  0
    5.3449   -1.1573   -0.0000 C   0  0  0  0  0  0  0  0  0  0  0  0
   -3.6150   -4.6649   -0.0000 C   0  0  0  0  0  0  0  0  0  0  0  0
   -2.2907   -6.8959   -0.0000 C   0  0  0  0  0  0  0  0  0  0  0  0
    0.3102   -6.8482   -0.0000 C   0  0  0  0  0  0  0  0  0  0  0  0
   -3.6150   -6.1562   -0.0000 C   0  0  0  0  0  0  0  0  0  0  0  0
  1  2  1  0
  1  3  1  0
  2  4  2  0
  2  5  1  0
  3  6  2  0
  3  7  1  0
  4  8  1  0
  5  9  2  0
  6 10  1  0
  7 11  1  0
  8 12  2  0
 10 13  1  0
 10 14  1  6
 11 15  1  0
 13 16  2  0
 13 17  1  0
 15 18  1  0
 15 19  1  0
 16 20  1  0
 17 21  2  0
 17 22  1  0
 20 23  2  0
  4  6  1  0
  9 12  1  0
 21 23  1  0
M  END
>  <MolRegNo>  (1) 
620008

>  <m>  (1) 
=

>  <Value>  (1) 
5500

>  <Unit>  (1) 
nM

>  <Type>  (1) 
IC50

>  <pValue>  (1) 
5.26

>  <Ligand Efficiency>  (1) 
0

>  <Binding Efficiency>  (1) 
0

>  <Surface Efficiency>  (1) 
0

>  <Assay Index>  (1) 
469728

>  <Assay Category>  (1) 


>  <Assay Organism>  (1) 


>  <Target ID>  (1) 
11365

>  <Target Name>  (1) 
Cytochrome P450 2D6

>  <Target Organism>  (1) 
Homo sapiens

>  <Target Description>  (1) 
Target is a single protein chain

>  <Sequence Accession>  (1) 
P10635

>  <Reference>  (1) 
Bioorg Med Chem Lett 20 (7), 2316-2320 (2010)

>  <Pubmed ID>  (1) 
20188547

>  <DOI>  (1) 
10.1016/j.bmcl.2010.01.134

$$$$
