4wnv_ligand_812
     RDKit          2D

 42 46  0  0  0  0  0  0  0  0999 V2000
    0.0000   -0.0000   -0.0000 S   0  0  0  0  0  0  0  0  0  0  0  0
    0.4483    1.4391   -0.0000 C   0  0  0  0  0  0  0  0  0  0  0  0
   -1.4745   -0.2949   -0.0000 C   0  0  0  0  0  0  0  0  0  0  0  0
    1.8638    1.9110   -0.0000 C   0  0  0  0  0  0  0  0  0  0  0  0
   -0.4483    2.6660   -0.0000 C   0  0  0  0  0  0  0  0  0  0  0  0
   -1.7930    1.1796   -0.0000 C   0  0  0  0  0  0  0  0  0  0  0  0
   -1.1796   -1.7459   -0.0000 C   0  0  0  0  0  0  0  0  0  0  0  0
   -2.9491   -0.5898   -0.0000 C   0  0  0  0  0  0  0  0  0  0  0  0
    1.8520    3.4209   -0.0000 C   0  0  0  0  0  0  0  0  0  0  0  0
    3.1496    1.1678   -0.0000 C   0  0  0  0  0  0  0  0  0  0  0  0
    0.4247    3.8928   -0.0000 N   0  0  0  0  0  0  0  0  0  0  0  0
   -1.9582    2.6778   -0.0000 C   0  0  0  0  0  0  0  0  0  0  0  0
    3.1378    4.1759   -0.0000 C   0  0  0  0  0  0  0  0  0  0  0  0
    4.4354    1.9228   -0.0000 C   0  0  0  0  0  0  0  0  0  0  0  0
   -0.0472    5.3319   -0.0000 C   0  0  0  0  0  0  0  0  0  0  0  0
   -2.7131    3.9871   -0.0000 C   0  0  0  0  0  0  0  0  0  0  0  0
    4.4236    3.4327   -0.0000 C   0  0  0  0  0  0  0  0  0  0  0  0
    5.7212    1.1796   -0.0000 O   0  0  0  0  0  0  0  0  0  0  0  0
    0.9437    6.4526   -0.0000 C   0  0  0  0  0  0  0  0  0  0  0  0
   -4.0225    3.2558   -0.0000 C   0  0  0  0  0  0  0  0  0  0  0  0
   -1.4274    4.7421   -0.0000 C   0  0  0  0  0  0  0  0  0  0  0  0
   -3.4681    5.2965   -0.0000 C   0  0  0  0  0  0  0  0  0  0  0  0
    7.0070    1.9346   -0.0000 C   0  0  0  0  0  0  0  0  0  0  0  0
    0.4719    7.8917   -0.0000 C   0  0  0  0  0  0  0  0  0  0  0  0
    2.3946    6.1577   -0.0000 C   0  0  0  0  0  0  0  0  0  0  0  0
   -4.0343    1.7694   -0.0000 O   0  0  0  0  0  0  0  0  0  0  0  0
   -5.3319    4.0107   -0.0000 O   0  0  0  0  0  0  0  0  0  0  0  0
    6.9952    3.4445   -0.0000 C   0  0  0  0  0  0  0  0  0  0  0  0
    1.4627    9.0124   -0.0000 C   0  0  0  0  0  0  0  0  0  0  0  0
    3.3855    7.2783   -0.0000 C   0  0  0  0  0  0  0  0  0  0  0  0
    8.2810    4.1995   -0.0000 N   0  0  0  0  0  0  0  0  0  0  0  0
    5.6858    4.1995   -0.0000 C   0  0  0  0  0  0  0  0  0  0  0  0
    2.9137    8.7175   -0.0000 C   0  0  0  0  0  0  0  0  0  0  0  0
    8.2692    5.7094   -0.0000 C   0  0  0  0  0  0  0  0  0  0  0  0
    5.6740    5.7094   -0.0000 C   0  0  0  0  0  0  0  0  0  0  0  0
    3.9046    9.8381   -0.0000 C   0  0  0  0  0  0  0  0  0  0  0  0
    6.9598    6.4644   -0.0000 C   0  0  0  0  0  0  0  0  0  0  0  0
    5.3555    9.5432   -0.0000 C   0  0  0  0  0  0  0  0  0  0  0  0
    3.4327   11.2773   -0.0000 C   0  0  0  0  0  0  0  0  0  0  0  0
    6.3464   10.6639   -0.0000 N   0  0  0  0  0  0  0  0  0  0  0  0
    4.4236   12.3979   -0.0000 C   0  0  0  0  0  0  0  0  0  0  0  0
    5.8746   12.1030   -0.0000 C   0  0  0  0  0  0  0  0  0  0  0  0
  1  2  1  0
  1  3  1  0
  2  4  1  0
  2  5  2  0
  3  6  1  0
  3  7  1  0
  3  8  1  0
  4  9  2  0
  4 10  1  0
  5 11  1  0
  5 12  1  0
  9 13  1  0
 10 14  2  0
 11 15  1  0
 12 16  1  0
 13 17  2  0
 14 18  1  0
 15 19  1  0
 16 20  1  0
 16 21  1  0
 16 22  1  0
 18 23  1  0
 19 24  2  0
 19 25  1  0
 20 26  2  0
 20 27  1  0
 23 28  1  0
 24 29  1  0
 25 30  2  0
 28 31  2  0
 28 32  1  0
 29 33  2  0
 31 34  1  0
 32 35  2  0
 33 36  1  0
 34 37  2  0
 36 38  2  0
 36 39  1  0
 38 40  1  0
 39 41  2  0
 40 42  2  0
  9 11  1  0
 14 17  1  0
 30 33  1  0
 35 37  1  0
 41 42  1  0
M  END
>  <MolRegNo>  (1) 
557376

>  <m>  (1) 
=

>  <Value>  (1) 
2.6

>  <Unit>  (1) 
nM

>  <Type>  (1) 
IC50

>  <pValue>  (1) 
8.59

>  <Ligand Efficiency>  (1) 
0

>  <Binding Efficiency>  (1) 
0

>  <Surface Efficiency>  (1) 
0

>  <Assay Index>  (1) 
428886

>  <Assay Category>  (1) 


>  <Assay Organism>  (1) 


>  <Target ID>  (1) 
11365

>  <Target Name>  (1) 
Cytochrome P450 2D6

>  <Target Organism>  (1) 
Homo sapiens

>  <Target Description>  (1) 
Target is a single protein chain

>  <Sequence Accession>  (1) 
P10635

>  <Reference>  (1) 
J Med Chem 52 (19), 5803-5815 (2009)

>  <Pubmed ID>  (1) 
19739647

>  <DOI>  (1) 
10.1021/jm900945d

$$$$
