4wnv_ligand_155
     RDKit          2D

 25 28  0  0  0  0  0  0  0  0999 V2000
    0.0000   -0.0000   -0.0000 O   0  0  0  0  0  0  0  0  0  0  0  0
   -0.8764    1.2270   -0.0000 C   0  0  0  0  0  0  0  0  0  0  0  0
    1.4724    0.1519   -0.0000 C   0  0  0  0  0  0  0  0  0  0  0  0
   -2.3722    1.0985   -0.0000 C   0  0  0  0  0  0  0  0  0  0  0  0
   -0.2688    2.5942   -0.0000 C   0  0  0  0  0  0  0  0  0  0  0  0
   -3.2486    2.3254   -0.0000 C   0  0  0  0  0  0  0  0  0  0  0  0
   -1.1452    3.8212   -0.0000 C   0  0  0  0  0  0  0  0  0  0  0  0
   -4.7444    2.5124   -0.0000 C   0  0  0  0  0  0  0  0  0  0  0  0
   -2.6410    3.6927   -0.0000 C   0  0  0  0  0  0  0  0  0  0  0  0
   -5.8779    1.5425   -0.0000 C   0  0  0  0  0  0  0  0  0  0  0  0
   -5.0482    3.9848   -0.0000 C   0  0  0  0  0  0  0  0  0  0  0  0
   -3.7511    4.7093   -0.0000 N   0  0  0  0  0  0  0  0  0  0  0  0
   -7.3035    2.0333   -0.0000 C   0  0  0  0  0  0  0  0  0  0  0  0
   -5.5974    0.0935   -0.0000 C   0  0  0  0  0  0  0  0  0  0  0  0
   -6.4738    4.4756   -0.0000 C   0  0  0  0  0  0  0  0  0  0  0  0
   -3.5875    6.2051   -0.0000 C   0  0  0  0  0  0  0  0  0  0  0  0
   -7.6074    3.5057   -0.0000 C   0  0  0  0  0  0  0  0  0  0  0  0
   -8.4370    1.0634   -0.0000 C   0  0  0  0  0  0  0  0  0  0  0  0
   -6.7777    5.9480   -0.0000 C   0  0  0  0  0  0  0  0  0  0  0  0
   -4.7911    7.1049   -0.0000 C   0  0  0  0  0  0  0  0  0  0  0  0
   -9.0330    3.9965   -0.0000 C   0  0  0  0  0  0  0  0  0  0  0  0
   -9.8627    1.5542   -0.0000 N   0  0  0  0  0  0  0  0  0  0  0  0
   -4.6275    8.6006   -0.0000 C   0  0  0  0  0  0  0  0  0  0  0  0
  -10.1665    3.0266   -0.0000 C   0  0  0  0  0  0  0  0  0  0  0  0
   -5.8311    9.5004   -0.0000 N   0  0  0  0  0  0  0  0  0  0  0  0
  1  2  1  0
  1  3  1  0
  2  4  2  0
  2  5  1  0
  4  6  1  0
  5  7  2  0
  6  8  1  0
  6  9  2  0
  8 10  2  0
  8 11  1  0
  9 12  1  0
 10 13  1  0
 10 14  1  0
 11 15  2  0
 12 16  1  0
 13 17  2  0
 13 18  1  0
 15 19  1  0
 16 20  1  0
 17 21  1  0
 18 22  2  0
 20 23  1  0
 21 24  2  0
 23 25  1  0
  7  9  1  0
 11 12  1  0
 15 17  1  0
 22 24  1  0
M  END
>  <MolRegNo>  (1) 
314205

>  <m>  (1) 
=

>  <Value>  (1) 
2400

>  <Unit>  (1) 
nM

>  <Type>  (1) 
IC50

>  <pValue>  (1) 
5.62

>  <Ligand Efficiency>  (1) 
0

>  <Binding Efficiency>  (1) 
0

>  <Surface Efficiency>  (1) 
0

>  <Assay Index>  (1) 
237541

>  <Assay Category>  (1) 


>  <Assay Organism>  (1) 


>  <Target ID>  (1) 
11365

>  <Target Name>  (1) 
Cytochrome P450 2D6

>  <Target Organism>  (1) 
Homo sapiens

>  <Target Description>  (1) 
Target is a single protein chain

>  <Sequence Accession>  (1) 
P10635

>  <Reference>  (1) 
J Med Chem 47 (22), 5340-5346 (2004)

>  <Pubmed ID>  (1) 
15481972

>  <DOI>  (1) 
10.1021/jm049934e

$$$$
