4wnv_ligand_617
     RDKit          2D

 20 22  0  0  0  0  0  0  0  0999 V2000
    0.0000   -0.0000   -0.0000 N   0  0  0  0  0  0  0  0  0  0  0  0
   -1.4397    0.4720   -0.0000 C   0  0  0  0  0  0  0  0  0  0  0  0
    0.8732    1.2273   -0.0000 C   0  0  0  0  0  0  0  0  0  0  0  0
   -1.4515    1.9825   -0.0000 C   0  0  0  0  0  0  0  0  0  0  0  0
   -2.7377   -0.2596   -0.0000 C   0  0  0  0  0  0  0  0  0  0  0  0
   -0.0236    2.4545   -0.0000 C   0  0  0  0  0  0  0  0  0  0  0  0
   -2.7495    2.7377   -0.0000 C   0  0  0  0  0  0  0  0  0  0  0  0
   -4.0358    0.4956   -0.0000 C   0  0  0  0  0  0  0  0  0  0  0  0
    0.4248    3.8824   -0.0000 C   0  0  0  0  0  0  0  0  0  0  0  0
   -4.0476    2.0061   -0.0000 C   0  0  0  0  0  0  0  0  0  0  0  0
   -0.5782    5.0034   -0.0000 C   0  0  0  0  0  0  0  0  0  0  0  0
    1.8645    4.2010   -0.0000 C   0  0  0  0  0  0  0  0  0  0  0  0
   -0.1180    6.4313   -0.0000 C   0  0  0  0  0  0  0  0  0  0  0  0
   -2.0297    4.6966   -0.0000 C   0  0  0  0  0  0  0  0  0  0  0  0
    2.3129    5.6289   -0.0000 C   0  0  0  0  0  0  0  0  0  0  0  0
   -1.1211    7.5524   -0.0000 C   0  0  0  0  0  0  0  0  0  0  0  0
   -3.0446    5.8059   -0.0000 C   0  0  0  0  0  0  0  0  0  0  0  0
    3.7526    5.9475   -0.0000 N   0  0  0  0  0  0  0  0  0  0  0  0
   -2.5843    7.2574   -0.0000 C   0  0  0  0  0  0  0  0  0  0  0  0
    4.2010    7.3754   -0.0000 C   0  0  0  0  0  0  0  0  0  0  0  0
  1  2  1  0
  1  3  1  0
  2  4  2  0
  2  5  1  0
  3  6  2  0
  4  7  1  0
  5  8  2  0
  6  9  1  0
  7 10  2  0
  9 11  1  0
  9 12  1  0
 11 13  2  0
 11 14  1  0
 12 15  1  0
 13 16  1  0
 14 17  2  0
 15 18  1  0
 16 19  2  0
 18 20  1  0
  4  6  1  0
  8 10  1  0
 17 19  1  0
M  END
>  <MolRegNo>  (1) 
516227

>  <m>  (1) 
=

>  <Value>  (1) 
3100

>  <Unit>  (1) 
nM

>  <Type>  (1) 
IC50

>  <pValue>  (1) 
5.51

>  <Ligand Efficiency>  (1) 
0

>  <Binding Efficiency>  (1) 
0

>  <Surface Efficiency>  (1) 
0

>  <Assay Index>  (1) 
342264

>  <Assay Category>  (1) 


>  <Assay Organism>  (1) 


>  <Target ID>  (1) 
11365

>  <Target Name>  (1) 
Cytochrome P450 2D6

>  <Target Organism>  (1) 
Homo sapiens

>  <Target Description>  (1) 
Target is a single protein chain

>  <Sequence Accession>  (1) 
P10635

>  <Reference>  (1) 
Bioorg Med Chem Lett 18 (23), 6062-6066 (2008)

>  <Pubmed ID>  (1) 
18954985

>  <DOI>  (1) 
10.1016/j.bmcl.2008.10.025

$$$$
