4wnv_ligand_234
     RDKit          2D

 29 31  0  0  1  0  0  0  0  0999 V2000
    0.0000   -0.0000   -0.0000 O   0  0  0  0  0  0  0  0  0  0  0  0
   -0.0119   -1.4865   -0.0000 C   0  0  0  0  0  0  0  0  0  0  0  0
    1.2724   -2.2238   -0.0000 N   0  0  0  0  0  0  0  0  0  0  0  0
   -1.3200   -2.2238   -0.0000 C   0  0  0  0  0  0  0  0  0  0  0  0
    2.5568   -1.4627   -0.0000 C   0  0  0  0  0  0  0  0  0  0  0  0
    1.2606   -3.7103   -0.0000 C   0  0  0  0  0  0  0  0  0  0  0  0
   -2.6281   -1.4627   -0.0000 N   0  0  0  0  0  0  0  0  0  0  0  0
    2.5449    0.0476   -0.0000 C   0  0  0  0  0  0  0  0  0  0  0  0
    3.8411   -2.2000   -0.0000 C   0  0  0  0  0  0  0  0  0  0  0  0
   -3.9363   -2.2000   -0.0000 C   0  0  0  0  0  0  0  0  0  0  0  0
   -2.6400    0.0476   -0.0000 C   0  0  0  0  0  0  0  0  0  0  0  0
    3.8292    0.8087   -0.0000 C   0  0  0  0  0  0  0  0  0  0  0  0
    1.2368    0.7968   -0.0000 C   0  0  0  0  0  0  0  0  0  0  0  0
    5.1255   -1.4389   -0.0000 N   0  0  0  0  0  0  0  0  0  0  0  0
   -5.2444   -1.4389   -0.0000 C   0  0  0  0  0  0  0  0  0  0  0  0
   -3.9481   -3.6984   -0.0000 C   0  0  0  0  0  0  0  0  0  0  0  0
   -3.9481    0.8087   -0.0000 O   0  0  0  0  0  0  0  0  0  0  0  0
   -1.3557    0.8087   -0.0000 C   0  0  0  0  0  0  0  0  0  0  0  0
    3.8173    2.3189   -0.0000 C   0  0  0  0  0  0  0  0  0  0  0  0
    1.2130    2.3070   -0.0000 C   0  0  0  0  0  0  0  0  0  0  0  0
    6.4811   -2.0335   -0.0000 C   0  0  0  0  0  0  0  0  0  0  0  0
    5.2682    0.0595   -0.0000 C   0  0  0  0  0  0  0  0  0  0  0  0
   -6.5525   -2.1762   -0.0000 C   0  0  0  0  0  0  0  0  0  0  0  0
   -5.2682   -4.4357   -0.0000 C   0  0  0  0  0  0  0  0  0  0  0  0
    2.4973    3.0800   -0.0000 C   0  0  0  0  0  0  0  0  0  0  0  0
    7.4682   -0.9038   -0.0000 C   0  0  0  0  0  0  0  0  0  0  0  0
    6.7190    0.3924   -0.0000 C   0  0  0  0  0  0  0  0  0  0  0  0
   -6.5644   -3.6746   -0.0000 C   0  0  0  0  0  0  0  0  0  0  0  0
    8.9547   -1.0465   -0.0000 O   0  0  0  0  0  0  0  0  0  0  0  0
  1  2  2  0
  2  3  1  0
  2  4  1  0
  5  3  1  0
  3  6  1  0
  4  7  1  0
  5  8  1  0
  5  9  1  1
  7 10  1  0
  7 11  1  0
  8 12  2  0
  8 13  1  0
  9 14  1  0
 10 15  2  0
 10 16  1  0
 11 17  2  0
 11 18  1  0
 12 19  1  0
 13 20  2  0
 14 21  1  0
 14 22  1  0
 15 23  1  0
 16 24  2  0
 19 25  2  0
 21 26  1  0
 22 27  1  0
 23 28  2  0
 26 29  1  6
 20 25  1  0
 24 28  1  0
 26 27  1  0
M  END
>  <MolRegNo>  (1) 
337871

>  <m>  (1) 
=

>  <Value>  (1) 
300

>  <Unit>  (1) 
nM

>  <Type>  (1) 
IC50

>  <pValue>  (1) 
6.52

>  <Ligand Efficiency>  (1) 
0

>  <Binding Efficiency>  (1) 
0

>  <Surface Efficiency>  (1) 
0

>  <Assay Index>  (1) 
257094

>  <Assay Category>  (1) 


>  <Assay Organism>  (1) 
Homo sapiens

>  <Target ID>  (1) 
11365

>  <Target Name>  (1) 
Cytochrome P450 2D6

>  <Target Organism>  (1) 
Homo sapiens

>  <Target Description>  (1) 
Target is a single protein chain

>  <Sequence Accession>  (1) 
P10635

>  <Reference>  (1) 
Bioorg Med Chem Lett 16 (3), 645-648 (2006)

>  <Pubmed ID>  (1) 
16263278

>  <DOI>  (1) 
10.1016/j.bmcl.2005.10.034

$$$$
