4wnv_ligand_51
     RDKit          2D

 51 56  0  0  1  0  0  0  0  0999 V2000
    0.0000   -0.0000   -0.0000 O   0  0  0  0  0  0  0  0  0  0  0  0
    1.2907    0.7578   -0.0000 C   0  0  0  0  0  0  0  0  0  0  0  0
    2.5814    0.0237   -0.0000 N   0  0  0  0  0  0  0  0  0  0  0  0
    1.2789    2.2735   -0.0000 C   0  0  0  0  0  0  0  0  0  0  0  0
    2.1788   -1.4210   -0.0000 C   0  0  0  0  0  0  0  0  0  0  0  0
    2.5696    3.0314   -0.0000 N   0  0  0  0  0  0  0  0  0  0  0  0
   -0.0355    3.0314   -0.0000 C   0  0  0  0  0  0  0  0  0  0  0  0
    0.8644   -0.6631   -0.0000 C   0  0  0  0  0  0  0  0  0  0  0  0
    0.7223   -1.7999   -0.0000 C   0  0  0  0  0  0  0  0  0  0  0  0
    3.2327   -2.4630   -0.0000 C   0  0  0  0  0  0  0  0  0  0  0  0
    2.5577    4.5471   -0.0000 C   0  0  0  0  0  0  0  0  0  0  0  0
    3.8721    2.2972   -0.0000 C   0  0  0  0  0  0  0  0  0  0  0  0
   -0.0474    4.5471   -0.0000 N   0  0  0  0  0  0  0  0  0  0  0  0
    1.2433    5.3049   -0.0000 C   0  0  0  0  0  0  0  0  0  0  0  0
    5.1629    3.0551   -0.0000 C   0  0  0  0  0  0  0  0  0  0  0  0
   -1.3618    5.2931   -0.0000 C   0  0  0  0  0  0  0  0  0  0  0  0
    5.1510    4.5708   -0.0000 O   0  0  0  0  0  0  0  0  0  0  0  0
    6.4536    2.3209   -0.0000 C   0  0  0  0  0  0  0  0  0  0  0  0
   -2.6762    4.5471   -0.0000 C   0  0  0  0  0  0  0  0  0  0  0  0
   -2.4393    6.3944   -0.0000 C   0  0  0  0  0  0  0  0  0  0  0  0
   -0.6394    6.6193   -0.0000 C   0  0  0  0  0  0  0  0  0  0  0  0
    7.7443    3.0788   -0.0000 C   0  0  0  0  0  0  0  0  0  0  0  0
   -2.8419    3.0551   -0.0000 O   0  0  0  0  0  0  0  0  0  0  0  0
   -4.0498    5.1510   -0.0000 C   0  0  0  0  0  0  0  0  0  0  0  0
    9.0350    2.3446   -0.0000 C   0  0  0  0  0  0  0  0  0  0  0  0
    7.7324    4.5945   -0.0000 C   0  0  0  0  0  0  0  0  0  0  0  0
   -4.3221    2.7472   -0.0000 C   0  0  0  0  0  0  0  0  0  0  0  0
   -5.0681    4.0498   -0.0000 C   0  0  0  0  0  0  0  0  0  0  0  0
    9.0232    0.8526   -0.0000 O   0  0  0  0  0  0  0  0  0  0  0  0
   10.3257    3.1024   -0.0000 N   0  0  0  0  0  0  0  0  0  0  0  0
    9.0232    5.3523   -0.0000 C   0  0  0  0  0  0  0  0  0  0  0  0
   -5.0681    1.4565   -0.0000 C   0  0  0  0  0  0  0  0  0  0  0  0
   -6.5838    4.0498   -0.0000 C   0  0  0  0  0  0  0  0  0  0  0  0
   11.6283    2.3683   -0.0000 C   0  0  0  0  0  0  0  0  0  0  0  0
    8.9995    6.8562   -0.0000 C   0  0  0  0  0  0  0  0  0  0  0  0
   10.3020    4.6063   -0.0000 C   0  0  0  0  0  0  0  0  0  0  0  0
   -6.5838    1.4565   -0.0000 C   0  0  0  0  0  0  0  0  0  0  0  0
   -7.3417    2.7472   -0.0000 N   0  0  0  0  0  0  0  0  0  0  0  0
   11.6164    0.8763   -0.0000 C   0  0  0  0  0  0  0  0  0  0  0  0
   12.8953    3.1261   -0.0000 C   0  0  0  0  0  0  0  0  0  0  0  0
   10.2902    7.6140   -0.0000 C   0  0  0  0  0  0  0  0  0  0  0  0
   11.5927    5.3642   -0.0000 C   0  0  0  0  0  0  0  0  0  0  0  0
   12.8834    0.1421   -0.0000 C   0  0  0  0  0  0  0  0  0  0  0  0
   10.3020    0.1421   -0.0000 C   0  0  0  0  0  0  0  0  0  0  0  0
   12.8834    4.6418   -0.0000 O   0  0  0  0  0  0  0  0  0  0  0  0
   14.2097    2.3920   -0.0000 C   0  0  0  0  0  0  0  0  0  0  0  0
   11.5809    6.8799   -0.0000 C   0  0  0  0  0  0  0  0  0  0  0  0
   14.1978    0.8999   -0.0000 O   0  0  0  0  0  0  0  0  0  0  0  0
   12.8716   -1.3262   -0.0000 C   0  0  0  0  0  0  0  0  0  0  0  0
   10.2902   -1.3262   -0.0000 C   0  0  0  0  0  0  0  0  0  0  0  0
   11.5809   -2.0604   -0.0000 C   0  0  0  0  0  0  0  0  0  0  0  0
  1  2  2  0
  2  3  1  0
  4  2  1  6
  3  5  1  0
  4  6  1  0
  4  7  1  0
  5  8  1  0
  5  9  1  0
  5 10  1  0
  6 11  1  0
  6 12  1  0
  7 13  1  0
 11 14  1  0
 12 15  1  0
 13 16  1  0
 15 17  1  1
 15 18  1  0
 16 19  1  0
 16 20  1  0
 16 21  1  0
 22 18  1  1
 19 23  1  0
 19 24  2  0
 22 25  1  0
 22 26  1  0
 23 27  1  0
 24 28  1  0
 25 29  2  0
 25 30  1  0
 26 31  1  0
 27 32  2  0
 28 33  2  0
 34 30  1  6
 31 35  2  0
 31 36  1  0
 32 37  1  0
 33 38  1  0
 34 39  1  0
 34 40  1  0
 35 41  1  0
 36 42  2  0
 39 43  2  0
 39 44  1  0
 40 45  1  6
 40 46  1  0
 41 47  2  0
 43 48  1  0
 43 49  1  0
 44 50  2  0
 49 51  2  0
 13 14  1  0
 27 28  1  0
 37 38  2  0
 42 47  1  0
 46 48  1  0
 50 51  1  0
M  END
>  <MolRegNo>  (1) 
127748

>  <m>  (1) 
=

>  <Value>  (1) 
2430

>  <Unit>  (1) 
nM

>  <Type>  (1) 
IC50

>  <pValue>  (1) 
5.61

>  <Ligand Efficiency>  (1) 
0

>  <Binding Efficiency>  (1) 
0

>  <Surface Efficiency>  (1) 
0

>  <Assay Index>  (1) 
151286

>  <Assay Category>  (1) 


>  <Assay Organism>  (1) 


>  <Target ID>  (1) 
11365

>  <Target Name>  (1) 
Cytochrome P450 2D6

>  <Target Organism>  (1) 
Homo sapiens

>  <Target Description>  (1) 
Target is a single protein chain

>  <Sequence Accession>  (1) 
P10635

>  <Reference>  (1) 
Bioorg Med Chem Lett 12 (17), 2423-2426 (2002)

>  <Pubmed ID>  (1) 
12161148

>  <DOI>  (1) 
10.1016/s0960-894x(02)00425-0

$$$$
