4wnv_ligand_774
     RDKit          2D

 38 41  0  0  0  0  0  0  0  0999 V2000
    0.0000   -0.0000   -0.0000 Cl  0  0  0  0  0  0  0  0  0  0  0  0
   -1.4719    0.3179   -0.0000 C   0  0  0  0  0  0  0  0  0  0  0  0
   -2.4846   -0.7772   -0.0000 C   0  0  0  0  0  0  0  0  0  0  0  0
   -1.9430    1.7546   -0.0000 C   0  0  0  0  0  0  0  0  0  0  0  0
   -3.9566   -0.4592   -0.0000 C   0  0  0  0  0  0  0  0  0  0  0  0
   -3.4149    2.0725   -0.0000 C   0  0  0  0  0  0  0  0  0  0  0  0
   -4.4276    0.9774   -0.0000 C   0  0  0  0  0  0  0  0  0  0  0  0
   -5.8996    1.2953   -0.0000 C   0  0  0  0  0  0  0  0  0  0  0  0
   -6.9123    0.2002   -0.0000 O   0  0  0  0  0  0  0  0  0  0  0  0
   -6.3706    2.7319   -0.0000 C   0  0  0  0  0  0  0  0  0  0  0  0
   -7.8072    3.2030   -0.0000 C   0  0  0  0  0  0  0  0  0  0  0  0
   -5.4992    3.9566   -0.0000 C   0  0  0  0  0  0  0  0  0  0  0  0
   -7.8190    4.7102   -0.0000 C   0  0  0  0  0  0  0  0  0  0  0  0
   -9.1143    2.4729   -0.0000 C   0  0  0  0  0  0  0  0  0  0  0  0
   -6.3941    5.1812   -0.0000 N   0  0  0  0  0  0  0  0  0  0  0  0
   -4.0155    3.9684   -0.0000 C   0  0  0  0  0  0  0  0  0  0  0  0
   -9.1261    5.4639   -0.0000 C   0  0  0  0  0  0  0  0  0  0  0  0
  -10.4214    3.2265   -0.0000 C   0  0  0  0  0  0  0  0  0  0  0  0
   -5.9467    6.6179   -0.0000 C   0  0  0  0  0  0  0  0  0  0  0  0
  -10.4331    4.7338   -0.0000 C   0  0  0  0  0  0  0  0  0  0  0  0
   -4.5100    7.0182   -0.0000 C   0  0  0  0  0  0  0  0  0  0  0  0
  -11.7402    5.4992   -0.0000 O   0  0  0  0  0  0  0  0  0  0  0  0
   -3.4620    5.9702   -0.0000 C   0  0  0  0  0  0  0  0  0  0  0  0
   -4.1332    8.4784   -0.0000 C   0  0  0  0  0  0  0  0  0  0  0  0
  -11.7520    7.0065   -0.0000 C   0  0  0  0  0  0  0  0  0  0  0  0
   -2.0254    6.3706   -0.0000 C   0  0  0  0  0  0  0  0  0  0  0  0
   -2.6966    8.8788   -0.0000 C   0  0  0  0  0  0  0  0  0  0  0  0
  -13.0591    7.7601   -0.0000 F   0  0  0  0  0  0  0  0  0  0  0  0
  -10.4685    7.7601   -0.0000 F   0  0  0  0  0  0  0  0  0  0  0  0
  -11.7638    8.5137   -0.0000 F   0  0  0  0  0  0  0  0  0  0  0  0
   -0.9774    5.3226   -0.0000 O   0  0  0  0  0  0  0  0  0  0  0  0
   -1.6486    7.8307   -0.0000 C   0  0  0  0  0  0  0  0  0  0  0  0
    0.4592    5.7229   -0.0000 C   0  0  0  0  0  0  0  0  0  0  0  0
    1.5073    4.6749   -0.0000 C   0  0  0  0  0  0  0  0  0  0  0  0
    0.8361    7.1831   -0.0000 C   0  0  0  0  0  0  0  0  0  0  0  0
    1.1069    3.2383   -0.0000 O   0  0  0  0  0  0  0  0  0  0  0  0
    2.9439    5.0753   -0.0000 O   0  0  0  0  0  0  0  0  0  0  0  0
    2.2727    7.5835   -0.0000 C   0  0  0  0  0  0  0  0  0  0  0  0
  1  2  1  0
  2  3  2  0
  2  4  1  0
  3  5  1  0
  4  6  2  0
  5  7  2  0
  7  8  1  0
  8  9  2  0
  8 10  1  0
 10 11  1  0
 10 12  2  0
 11 13  2  0
 11 14  1  0
 12 15  1  0
 12 16  1  0
 13 17  1  0
 14 18  2  0
 15 19  1  0
 17 20  2  0
 19 21  1  0
 20 22  1  0
 21 23  2  0
 21 24  1  0
 22 25  1  0
 23 26  1  0
 24 27  2  0
 25 28  1  0
 25 29  1  0
 25 30  1  0
 26 31  1  0
 26 32  2  0
 33 31  1  0
 33 34  1  0
 33 35  1  1
 34 36  2  0
 34 37  1  0
 35 38  1  0
  6  7  1  0
 13 15  1  0
 18 20  1  0
 27 32  1  0
M  END
>  <MolRegNo>  (1) 
561513

>  <m>  (1) 
=

>  <Value>  (1) 
7000

>  <Unit>  (1) 
nM

>  <Type>  (1) 
IC50

>  <pValue>  (1) 
5.16

>  <Ligand Efficiency>  (1) 
0

>  <Binding Efficiency>  (1) 
0

>  <Surface Efficiency>  (1) 
0

>  <Assay Index>  (1) 
417930

>  <Assay Category>  (1) 


>  <Assay Organism>  (1) 


>  <Target ID>  (1) 
11365

>  <Target Name>  (1) 
Cytochrome P450 2D6

>  <Target Organism>  (1) 
Homo sapiens

>  <Target Description>  (1) 
Target is a single protein chain

>  <Sequence Accession>  (1) 
P10635

>  <Reference>  (1) 
J Med Chem 52 (14), 4443-4453 (2009)

>  <Pubmed ID>  (1) 
19530681

>  <DOI>  (1) 
10.1021/jm900367w

$$$$
