4wnv_ligand_560
     RDKit          2D

 25 27  0  0  0  0  0  0  0  0999 V2000
    0.0000   -0.0000   -0.0000 F   0  0  0  0  0  0  0  0  0  0  0  0
    1.4495    0.0148   -0.0000 C   0  0  0  0  0  0  0  0  0  0  0  0
    2.1742   -1.2276   -0.0000 C   0  0  0  0  0  0  0  0  0  0  0  0
    2.1742    1.3015   -0.0000 C   0  0  0  0  0  0  0  0  0  0  0  0
    0.9318   -2.6770   -0.0000 O   0  0  0  0  0  0  0  0  0  0  0  0
    3.6236   -1.2276   -0.0000 C   0  0  0  0  0  0  0  0  0  0  0  0
    3.6236    1.3015   -0.0000 C   0  0  0  0  0  0  0  0  0  0  0  0
    1.2572   -4.5406   -0.0000 C   0  0  0  0  0  0  0  0  0  0  0  0
    4.3631    0.0444   -0.0000 C   0  0  0  0  0  0  0  0  0  0  0  0
    4.3484   -2.4848   -0.0000 C   0  0  0  0  0  0  0  0  0  0  0  0
   -0.0296   -5.2801   -0.0000 C   0  0  0  0  0  0  0  0  0  0  0  0
    2.5291   -5.2654   -0.0000 C   0  0  0  0  0  0  0  0  0  0  0  0
    5.0731   -3.7715   -0.0000 F   0  0  0  0  0  0  0  0  0  0  0  0
    5.6351   -1.7157   -0.0000 F   0  0  0  0  0  0  0  0  0  0  0  0
    3.0172   -3.1947   -0.0000 F   0  0  0  0  0  0  0  0  0  0  0  0
   -0.0296   -6.7444   -0.0000 C   0  0  0  0  0  0  0  0  0  0  0  0
   -1.3163   -4.5406   -0.0000 C   0  0  0  0  0  0  0  0  0  0  0  0
    2.5291   -6.7296   -0.0000 O   0  0  0  0  0  0  0  0  0  0  0  0
    3.7863   -4.5110   -0.0000 C   0  0  0  0  0  0  0  0  0  0  0  0
   -1.3163   -7.4691   -0.0000 C   0  0  0  0  0  0  0  0  0  0  0  0
    1.2424   -7.4691   -0.0000 C   0  0  0  0  0  0  0  0  0  0  0  0
   -2.6031   -5.2654   -0.0000 C   0  0  0  0  0  0  0  0  0  0  0  0
    5.0435   -5.2358   -0.0000 N   0  0  0  0  0  0  0  0  0  0  0  0
   -2.6031   -6.7148   -0.0000 C   0  0  0  0  0  0  0  0  0  0  0  0
    5.0287   -6.6852   -0.0000 C   0  0  0  0  0  0  0  0  0  0  0  0
  1  2  1  0
  2  3  2  0
  2  4  1  0
  3  5  1  0
  3  6  1  0
  4  7  2  0
  8  5  1  1
  6  9  2  0
  6 10  1  0
  8 11  1  0
  8 12  1  0
 10 13  1  0
 10 14  1  0
 10 15  1  0
 11 16  2  0
 11 17  1  0
 12 18  1  0
 12 19  1  1
 16 20  1  0
 16 21  1  0
 17 22  2  0
 19 23  1  0
 20 24  2  0
 23 25  1  0
  7  9  1  0
 18 21  1  0
 22 24  1  0
M  END
>  <MolRegNo>  (1) 
511390

>  <m>  (1) 
=

>  <Value>  (1) 
220

>  <Unit>  (1) 
nM

>  <Type>  (1) 
IC50

>  <pValue>  (1) 
6.66

>  <Ligand Efficiency>  (1) 
0

>  <Binding Efficiency>  (1) 
0

>  <Surface Efficiency>  (1) 
0

>  <Assay Index>  (1) 
358939

>  <Assay Category>  (1) 


>  <Assay Organism>  (1) 


>  <Target ID>  (1) 
11365

>  <Target Name>  (1) 
Cytochrome P450 2D6

>  <Target Organism>  (1) 
Homo sapiens

>  <Target Description>  (1) 
Target is a single protein chain

>  <Sequence Accession>  (1) 
P10635

>  <Reference>  (1) 
Bioorg Med Chem Lett 18 (16), 4491-4494 (2008)

>  <Pubmed ID>  (1) 
18672364

>  <DOI>  (1) 
10.1016/j.bmcl.2008.07.049

$$$$
