4wnv_ligand_186
     RDKit          2D

 34 36  0  0  1  0  0  0  0  0999 V2000
    0.0000   -0.0000   -0.0000 S   0  0  0  0  0  0  0  0  0  0  0  0
   -1.5284   -0.0000   -0.0000 O   0  0  0  0  0  0  0  0  0  0  0  0
    1.4920    0.0364   -0.0000 O   0  0  0  0  0  0  0  0  0  0  0  0
   -0.0364    1.5163   -0.0000 N   0  0  0  0  0  0  0  0  0  0  0  0
    0.0000   -1.5041   -0.0000 C   0  0  0  0  0  0  0  0  0  0  0  0
    1.2494    2.3047   -0.0000 C   0  0  0  0  0  0  0  0  0  0  0  0
    1.2979   -2.2198   -0.0000 C   0  0  0  0  0  0  0  0  0  0  0  0
    2.5231    1.5527   -0.0000 C   0  0  0  0  0  0  0  0  0  0  0  0
    1.3101   -3.7118   -0.0000 C   0  0  0  0  0  0  0  0  0  0  0  0
    2.4988    0.0243   -0.0000 C   0  0  0  0  0  0  0  0  0  0  0  0
    3.7967    2.2926   -0.0000 C   0  0  0  0  0  0  0  0  0  0  0  0
    2.6080   -4.4396   -0.0000 C   0  0  0  0  0  0  0  0  0  0  0  0
    3.7846   -0.7157   -0.0000 C   0  0  0  0  0  0  0  0  0  0  0  0
    5.0825    1.5527   -0.0000 C   0  0  0  0  0  0  0  0  0  0  0  0
    5.0704    0.0485   -0.0000 C   0  0  0  0  0  0  0  0  0  0  0  0
    6.3683   -0.6914   -0.0000 C   0  0  0  0  0  0  0  0  0  0  0  0
    7.6420    0.0849   -0.0000 C   0  0  0  0  0  0  0  0  0  0  0  0
    7.6299    1.6012   -0.0000 O   0  0  0  0  0  0  0  0  0  0  0  0
    8.9521   -0.6550   -0.0000 N   0  0  0  0  0  0  0  0  0  0  0  0
   10.2379    0.1092   -0.0000 C   0  0  0  0  0  0  0  0  0  0  0  0
    8.9399   -2.1470   -0.0000 C   0  0  0  0  0  0  0  0  0  0  0  0
   10.2257    1.6254   -0.0000 C   0  0  0  0  0  0  0  0  0  0  0  0
   11.5237   -0.6308   -0.0000 C   0  0  0  0  0  0  0  0  0  0  0  0
    8.9157    2.3654   -0.0000 C   0  0  0  0  0  0  0  0  0  0  0  0
   11.5115    2.3775   -0.0000 C   0  0  0  0  0  0  0  0  0  0  0  0
   12.8095    0.1334   -0.0000 N   0  0  0  0  0  0  0  0  0  0  0  0
    8.8914    3.8817   -0.0000 C   0  0  0  0  0  0  0  0  0  0  0  0
   11.4994    3.8938   -0.0000 C   0  0  0  0  0  0  0  0  0  0  0  0
   14.1681   -0.4609   -0.0000 C   0  0  0  0  0  0  0  0  0  0  0  0
   12.9550    1.6497   -0.0000 C   0  0  0  0  0  0  0  0  0  0  0  0
   10.1894    4.6580   -0.0000 C   0  0  0  0  0  0  0  0  0  0  0  0
   15.1749    0.6672   -0.0000 C   0  0  0  0  0  0  0  0  0  0  0  0
   14.3985    1.9651   -0.0000 C   0  0  0  0  0  0  0  0  0  0  0  0
   16.6547    0.5337   -0.0000 O   0  0  0  0  0  0  0  0  0  0  0  0
  1  2  2  0
  1  3  2  0
  1  4  1  0
  1  5  1  0
  4  6  1  0
  5  7  1  0
  6  8  1  0
  7  9  1  0
  8 10  2  0
  8 11  1  0
  9 12  1  0
 10 13  1  0
 11 14  2  0
 13 15  2  0
 15 16  1  0
 16 17  1  0
 17 18  2  0
 17 19  1  0
 20 19  1  0
 19 21  1  0
 20 22  1  0
 20 23  1  1
 22 24  2  0
 22 25  1  0
 23 26  1  0
 24 27  1  0
 25 28  2  0
 26 29  1  0
 26 30  1  0
 27 31  2  0
 29 32  1  0
 30 33  1  0
 32 34  1  6
 14 15  1  0
 28 31  1  0
 32 33  1  0
M  END
>  <MolRegNo>  (1) 
319451

>  <m>  (1) 
=

>  <Value>  (1) 
7888

>  <Unit>  (1) 
nM

>  <Type>  (1) 
IC50

>  <pValue>  (1) 
5.1

>  <Ligand Efficiency>  (1) 
0

>  <Binding Efficiency>  (1) 
0

>  <Surface Efficiency>  (1) 
0

>  <Assay Index>  (1) 
238842

>  <Assay Category>  (1) 


>  <Assay Organism>  (1) 
Homo sapiens

>  <Target ID>  (1) 
11365

>  <Target Name>  (1) 
Cytochrome P450 2D6

>  <Target Organism>  (1) 
Homo sapiens

>  <Target Description>  (1) 
Target is a single protein chain

>  <Sequence Accession>  (1) 
P10635

>  <Reference>  (1) 
Bioorg Med Chem Lett 15 (10), 2647-2652 (2005)

>  <Pubmed ID>  (1) 
15863335

>  <DOI>  (1) 
10.1016/j.bmcl.2005.03.020

$$$$
