4wnv_ligand_712
     RDKit          2D

 23 25  0  0  0  0  0  0  0  0999 V2000
    0.0000   -0.0000   -0.0000 O   0  0  0  0  0  0  0  0  0  0  0  0
   -1.3070    0.7604   -0.0000 C   0  0  0  0  0  0  0  0  0  0  0  0
   -1.3189    2.2694   -0.0000 O   0  0  0  0  0  0  0  0  0  0  0  0
   -2.6140    0.0238   -0.0000 N   0  0  0  0  0  0  0  0  0  0  0  0
   -0.0356    3.0298   -0.0000 C   0  0  0  0  0  0  0  0  0  0  0  0
   -2.6377   -1.4615   -0.0000 C   0  0  0  0  0  0  0  0  0  0  0  0
   -3.9329    0.7723   -0.0000 C   0  0  0  0  0  0  0  0  0  0  0  0
   -1.4615   -2.3407   -0.0000 C   0  0  0  0  0  0  0  0  0  0  0  0
   -3.8734   -2.3169   -0.0000 C   0  0  0  0  0  0  0  0  0  0  0  0
   -5.2398    0.0238   -0.0000 C   0  0  0  0  0  0  0  0  0  0  0  0
   -1.9486   -3.7427   -0.0000 N   0  0  0  0  0  0  0  0  0  0  0  0
   -3.4338   -3.7309   -0.0000 C   0  0  0  0  0  0  0  0  0  0  0  0
   -6.5587    0.7723   -0.0000 C   0  0  0  0  0  0  0  0  0  0  0  0
   -5.2517   -1.4733   -0.0000 C   0  0  0  0  0  0  0  0  0  0  0  0
   -6.5825    2.2813   -0.0000 C   0  0  0  0  0  0  0  0  0  0  0  0
   -7.8538    0.0356   -0.0000 C   0  0  0  0  0  0  0  0  0  0  0  0
   -6.5706   -2.2100   -0.0000 C   0  0  0  0  0  0  0  0  0  0  0  0
   -5.2993    3.0417   -0.0000 C   0  0  0  0  0  0  0  0  0  0  0  0
   -7.9014    3.0298   -0.0000 C   0  0  0  0  0  0  0  0  0  0  0  0
   -7.8657   -1.4496   -0.0000 C   0  0  0  0  0  0  0  0  0  0  0  0
   -5.3230    4.5507   -0.0000 C   0  0  0  0  0  0  0  0  0  0  0  0
   -7.9251    4.5388   -0.0000 C   0  0  0  0  0  0  0  0  0  0  0  0
   -6.6419    5.3111   -0.0000 C   0  0  0  0  0  0  0  0  0  0  0  0
  1  2  2  0
  2  3  1  0
  2  4  1  0
  3  5  1  0
  6  4  1  6
  4  7  1  0
  6  8  1  0
  6  9  1  0
  7 10  1  0
  8 11  1  0
  9 12  1  0
 10 13  1  0
 10 14  2  0
 13 15  1  0
 13 16  2  0
 14 17  1  0
 15 18  2  0
 15 19  1  0
 16 20  1  0
 18 21  1  0
 19 22  2  0
 21 23  2  0
 11 12  1  0
 17 20  2  0
 22 23  1  0
M  END
>  <MolRegNo>  (1) 
489608

>  <m>  (1) 
=

>  <Value>  (1) 
10600

>  <Unit>  (1) 
nM

>  <Type>  (1) 
IC50

>  <pValue>  (1) 
4.97

>  <Ligand Efficiency>  (1) 
0

>  <Binding Efficiency>  (1) 
0

>  <Surface Efficiency>  (1) 
0

>  <Assay Index>  (1) 
339261

>  <Assay Category>  (1) 


>  <Assay Organism>  (1) 


>  <Target ID>  (1) 
11365

>  <Target Name>  (1) 
Cytochrome P450 2D6

>  <Target Organism>  (1) 
Homo sapiens

>  <Target Description>  (1) 
Target is a single protein chain

>  <Sequence Accession>  (1) 
P10635

>  <Reference>  (1) 
Bioorg Med Chem Lett 18 (15), 4355-4359 (2008)

>  <Pubmed ID>  (1) 
18621528

>  <DOI>  (1) 
10.1016/j.bmcl.2008.06.071

$$$$
