4wnv_ligand_1
     RDKit          2D

 26 28  0  0  0  0  0  0  0  0999 V2000
    0.0000   -0.0000   -0.0000 Br  0  0  0  0  0  0  0  0  0  0  0  0
    1.3066    0.7602   -0.0000 C   0  0  0  0  0  0  0  0  0  0  0  0
    2.6132    0.0238   -0.0000 C   0  0  0  0  0  0  0  0  0  0  0  0
    1.2947    2.2806   -0.0000 C   0  0  0  0  0  0  0  0  0  0  0  0
    3.8961    0.7840   -0.0000 C   0  0  0  0  0  0  0  0  0  0  0  0
    2.5895    3.0408   -0.0000 C   0  0  0  0  0  0  0  0  0  0  0  0
    3.8842    2.3044   -0.0000 C   0  0  0  0  0  0  0  0  0  0  0  0
    5.1789    3.0765   -0.0000 S   0  0  0  0  0  0  0  0  0  0  0  0
    5.9272    1.7699   -0.0000 O   0  0  0  0  0  0  0  0  0  0  0  0
    4.4068    4.3950   -0.0000 O   0  0  0  0  0  0  0  0  0  0  0  0
    6.4618    3.8367   -0.0000 N   0  0  0  0  0  0  0  0  0  0  0  0
    7.7565    3.0765   -0.0000 C   0  0  0  0  0  0  0  0  0  0  0  0
    9.0512    3.8367   -0.0000 C   0  0  0  0  0  0  0  0  0  0  0  0
    7.7446    1.5917   -0.0000 C   0  0  0  0  0  0  0  0  0  0  0  0
   10.3341    3.1002   -0.0000 C   0  0  0  0  0  0  0  0  0  0  0  0
    9.0393    0.8552   -0.0000 C   0  0  0  0  0  0  0  0  0  0  0  0
   11.6050    3.8604   -0.0000 N   0  0  0  0  0  0  0  0  0  0  0  0
   10.3222    1.6154   -0.0000 C   0  0  0  0  0  0  0  0  0  0  0  0
   11.5932    5.3690   -0.0000 C   0  0  0  0  0  0  0  0  0  0  0  0
   12.8998    3.1240   -0.0000 C   0  0  0  0  0  0  0  0  0  0  0  0
   11.6169    0.8552   -0.0000 O   0  0  0  0  0  0  0  0  0  0  0  0
   12.8879    6.1292   -0.0000 C   0  0  0  0  0  0  0  0  0  0  0  0
   14.1945    3.8842   -0.0000 C   0  0  0  0  0  0  0  0  0  0  0  0
   12.9235    1.6036   -0.0000 C   0  0  0  0  0  0  0  0  0  0  0  0
   14.1826    5.3927   -0.0000 N   0  0  0  0  0  0  0  0  0  0  0  0
   15.4774    6.1767   -0.0000 C   0  0  0  0  0  0  0  0  0  0  0  0
  1  2  1  0
  2  3  2  0
  2  4  1  0
  3  5  1  0
  4  6  2  0
  5  7  2  0
  7  8  1  0
  8  9  2  0
  8 10  2  0
  8 11  1  0
 11 12  1  0
 12 13  2  0
 12 14  1  0
 13 15  1  0
 14 16  2  0
 15 17  1  0
 15 18  2  0
 17 19  1  0
 17 20  1  0
 18 21  1  0
 19 22  1  0
 20 23  1  0
 21 24  1  0
 22 25  1  0
 25 26  1  0
  6  7  1  0
 16 18  1  0
 23 25  1  0
M  END
>  <MolRegNo>  (1) 
99770

>  <m>  (1) 
=

>  <Value>  (1) 
11000

>  <Unit>  (1) 
nM

>  <Type>  (1) 
IC50

>  <pValue>  (1) 
4.96

>  <Ligand Efficiency>  (1) 
0

>  <Binding Efficiency>  (1) 
0

>  <Surface Efficiency>  (1) 
0

>  <Assay Index>  (1) 
52463

>  <Assay Category>  (1) 


>  <Assay Organism>  (1) 
Homo sapiens

>  <Target ID>  (1) 
11365

>  <Target Name>  (1) 
Cytochrome P450 2D6

>  <Target Organism>  (1) 
Homo sapiens

>  <Target Description>  (1) 
Target is a single protein chain

>  <Sequence Accession>  (1) 
P10635

>  <Reference>  (1) 
J Med Chem 42 (2), 202-205 (1999)

>  <Pubmed ID>  (1) 
9925723

>  <DOI>  (1) 
10.1021/jm980532e

$$$$
