4wnv_ligand_787
     RDKit          2D

 30 33  0  0  0  0  0  0  0  0999 V2000
    0.0000   -0.0000   -0.0000 O   0  0  0  0  0  0  0  0  0  0  0  0
    1.4429    0.3664   -0.0000 C   0  0  0  0  0  0  0  0  0  0  0  0
    2.4735   -0.6985   -0.0000 N   0  0  0  0  0  0  0  0  0  0  0  0
    1.8436    1.8207   -0.0000 C   0  0  0  0  0  0  0  0  0  0  0  0
    2.0498   -2.1299   -0.0000 C   0  0  0  0  0  0  0  0  0  0  0  0
    3.9163   -0.3321   -0.0000 C   0  0  0  0  0  0  0  0  0  0  0  0
    3.2865    2.1872   -0.0000 C   0  0  0  0  0  0  0  0  0  0  0  0
    0.7901    2.9086   -0.0000 C   0  0  0  0  0  0  0  0  0  0  0  0
    3.0804   -3.1949   -0.0000 C   0  0  0  0  0  0  0  0  0  0  0  0
    0.5840   -2.4735   -0.0000 C   0  0  0  0  0  0  0  0  0  0  0  0
    4.9469   -1.3971   -0.0000 C   0  0  0  0  0  0  0  0  0  0  0  0
    4.3171    1.1222   -0.0000 C   0  0  0  0  0  0  0  0  0  0  0  0
    3.6873    3.6415   -0.0000 C   0  0  0  0  0  0  0  0  0  0  0  0
    1.1909    4.3629   -0.0000 C   0  0  0  0  0  0  0  0  0  0  0  0
    2.6338    4.7294   -0.0000 C   0  0  0  0  0  0  0  0  0  0  0  0
    3.0346    6.1837   -0.0000 C   0  0  0  0  0  0  0  0  0  0  0  0
    1.9811    7.2715   -0.0000 C   0  0  0  0  0  0  0  0  0  0  0  0
    4.4774    6.5501   -0.0000 C   0  0  0  0  0  0  0  0  0  0  0  0
    2.3819    8.7258   -0.0000 C   0  0  0  0  0  0  0  0  0  0  0  0
    0.5153    6.9280   -0.0000 C   0  0  0  0  0  0  0  0  0  0  0  0
    4.8782    8.0044   -0.0000 C   0  0  0  0  0  0  0  0  0  0  0  0
    3.8247    9.0923   -0.0000 O   0  0  0  0  0  0  0  0  0  0  0  0
    1.3283    9.8137   -0.0000 C   0  0  0  0  0  0  0  0  0  0  0  0
   -0.5382    8.0159   -0.0000 C   0  0  0  0  0  0  0  0  0  0  0  0
    5.2790    9.4587   -0.0000 C   0  0  0  0  0  0  0  0  0  0  0  0
    5.9088    6.9394   -0.0000 C   0  0  0  0  0  0  0  0  0  0  0  0
   -0.1374    9.4702   -0.0000 C   0  0  0  0  0  0  0  0  0  0  0  0
    6.7219    9.8252   -0.0000 C   0  0  0  0  0  0  0  0  0  0  0  0
    7.3517    7.3059   -0.0000 C   0  0  0  0  0  0  0  0  0  0  0  0
    7.7525    8.7602   -0.0000 N   0  0  0  0  0  0  0  0  0  0  0  0
  1  2  2  0
  2  3  1  0
  2  4  1  0
  3  5  1  0
  3  6  1  0
  4  7  2  0
  4  8  1  0
  5  9  1  0
  5 10  1  0
  6 11  1  0
  6 12  1  0
  7 13  1  0
  8 14  2  0
 13 15  2  0
 15 16  1  0
 16 17  1  0
 16 18  2  0
 17 19  2  0
 17 20  1  0
 18 21  1  0
 19 22  1  0
 19 23  1  0
 20 24  2  0
 21 25  1  0
 21 26  1  0
 23 27  2  0
 25 28  1  0
 26 29  1  0
 28 30  1  0
 14 15  1  0
 21 22  1  0
 24 27  1  0
 29 30  1  0
M  END
>  <MolRegNo>  (1) 
555671

>  <m>  (1) 
=

>  <Value>  (1) 
4100

>  <Unit>  (1) 
nM

>  <Type>  (1) 
IC50

>  <pValue>  (1) 
5.39

>  <Ligand Efficiency>  (1) 
0

>  <Binding Efficiency>  (1) 
0

>  <Surface Efficiency>  (1) 
0

>  <Assay Index>  (1) 
428577

>  <Assay Category>  (1) 


>  <Assay Organism>  (1) 
Homo sapiens

>  <Target ID>  (1) 
11365

>  <Target Name>  (1) 
Cytochrome P450 2D6

>  <Target Organism>  (1) 
Homo sapiens

>  <Target Description>  (1) 
Target is a single protein chain

>  <Sequence Accession>  (1) 
P10635

>  <Reference>  (1) 
J Med Chem 52 (18), 5685-5702 (2009)

>  <Pubmed ID>  (1) 
19694468

>  <DOI>  (1) 
10.1021/jm900773n

$$$$
