4wnv_ligand_35
     RDKit          2D

 17 18  0  0  0  0  0  0  0  0999 V2000
    0.0000   -0.0000   -0.0000 O   0  0  0  0  0  0  0  0  0  0  0  0
    1.2969    0.7664   -0.0000 C   0  0  0  0  0  0  0  0  0  0  0  0
   -1.3087    0.7664   -0.0000 C   0  0  0  0  0  0  0  0  0  0  0  0
    1.2733    2.2755   -0.0000 C   0  0  0  0  0  0  0  0  0  0  0  0
    2.5821    0.0236   -0.0000 C   0  0  0  0  0  0  0  0  0  0  0  0
   -2.6174    0.0236   -0.0000 C   0  0  0  0  0  0  0  0  0  0  0  0
    2.5585    3.0301   -0.0000 C   0  0  0  0  0  0  0  0  0  0  0  0
    3.8672    0.7899   -0.0000 C   0  0  0  0  0  0  0  0  0  0  0  0
   -3.9262    0.7899   -0.0000 C   0  0  0  0  0  0  0  0  0  0  0  0
    3.8672    2.2873   -0.0000 C   0  0  0  0  0  0  0  0  0  0  0  0
   -5.2349    0.0472   -0.0000 C   0  0  0  0  0  0  0  0  0  0  0  0
    5.1523    3.0419   -0.0000 C   0  0  0  0  0  0  0  0  0  0  0  0
    6.4375    2.2991   -0.0000 N   0  0  0  0  0  0  0  0  0  0  0  0
    5.1288    4.5510   -0.0000 C   0  0  0  0  0  0  0  0  0  0  0  0
    7.7226    3.0419   -0.0000 C   0  0  0  0  0  0  0  0  0  0  0  0
    6.4139    5.3056   -0.0000 N   0  0  0  0  0  0  0  0  0  0  0  0
    7.7108    4.5510   -0.0000 C   0  0  0  0  0  0  0  0  0  0  0  0
  1  2  1  0
  1  3  1  0
  2  4  2  0
  2  5  1  0
  3  6  1  0
  4  7  1  0
  5  8  2  0
  6  9  1  0
  7 10  2  0
  9 11  1  0
 10 12  1  0
 12 13  2  0
 12 14  1  0
 13 15  1  0
 14 16  2  0
 15 17  2  0
  8 10  1  0
 16 17  1  0
M  END
>  <MolRegNo>  (1) 
251654

>  <m>  (1) 
=

>  <Value>  (1) 
6590

>  <Unit>  (1) 
nM

>  <Type>  (1) 
IC50

>  <pValue>  (1) 
5.18

>  <Ligand Efficiency>  (1) 
0

>  <Binding Efficiency>  (1) 
0

>  <Surface Efficiency>  (1) 
0

>  <Assay Index>  (1) 
51627

>  <Assay Category>  (1) 


>  <Assay Organism>  (1) 


>  <Target ID>  (1) 
11365

>  <Target Name>  (1) 
Cytochrome P450 2D6

>  <Target Organism>  (1) 
Homo sapiens

>  <Target Description>  (1) 
Target is a single protein chain

>  <Sequence Accession>  (1) 
P10635

>  <Reference>  (1) 
J Med Chem 46 (25), 5416-5427 (2003)

>  <Pubmed ID>  (1) 
14640550

>  <DOI>  (1) 
10.1021/jm020557k

$$$$
