4wnv_ligand_305
     RDKit          2D

 35 39  0  0  1  0  0  0  0  0999 V2000
    0.0000   -0.0000   -0.0000 S   0  0  0  0  0  0  0  0  0  0  0  0
   -1.0297   -1.0889   -0.0000 C   0  0  0  0  0  0  0  0  0  0  0  0
    1.3493   -0.6154   -0.0000 C   0  0  0  0  0  0  0  0  0  0  0  0
   -2.5328   -0.8995   -0.0000 C   0  0  0  0  0  0  0  0  0  0  0  0
   -0.3077   -2.3908   -0.0000 C   0  0  0  0  0  0  0  0  0  0  0  0
    2.6512    0.1302   -0.0000 C   0  0  0  0  0  0  0  0  0  0  0  0
    1.1599   -2.1067   -0.0000 C   0  0  0  0  0  0  0  0  0  0  0  0
   -3.1246    0.4971   -0.0000 C   0  0  0  0  0  0  0  0  0  0  0  0
   -3.4323   -2.0831   -0.0000 C   0  0  0  0  0  0  0  0  0  0  0  0
    2.6630    1.6451   -0.0000 O   0  0  0  0  0  0  0  0  0  0  0  0
    3.9294   -0.6273   -0.0000 N   0  0  0  0  0  0  0  0  0  0  0  0
   -4.6277    0.6865   -0.0000 C   0  0  0  0  0  0  0  0  0  0  0  0
   -4.9354   -1.8937   -0.0000 C   0  0  0  0  0  0  0  0  0  0  0  0
    5.2313    0.1184   -0.0000 C   0  0  0  0  0  0  0  0  0  0  0  0
    3.8466   -2.1186   -0.0000 C   0  0  0  0  0  0  0  0  0  0  0  0
   -5.5390   -0.5089   -0.0000 C   0  0  0  0  0  0  0  0  0  0  0  0
    6.5806   -0.4971   -0.0000 C   0  0  0  0  0  0  0  0  0  0  0  0
    5.3970    1.6215   -0.0000 C   0  0  0  0  0  0  0  0  0  0  0  0
   -7.0422   -0.3196   -0.0000 C   0  0  0  0  0  0  0  0  0  0  0  0
    7.5866    0.6154   -0.0000 N   0  0  0  0  0  0  0  0  0  0  0  0
    6.8646    1.9292   -0.0000 C   0  0  0  0  0  0  0  0  0  0  0  0
   -7.6458    1.0770   -0.0000 C   0  0  0  0  0  0  0  0  0  0  0  0
    9.0660    0.4498   -0.0000 C   0  0  0  0  0  0  0  0  0  0  0  0
    9.9537    1.6688   -0.0000 O   0  0  0  0  0  0  0  0  0  0  0  0
    9.6460   -0.9232   -0.0000 N   0  0  0  0  0  0  0  0  0  0  0  0
   11.1017   -1.2427   -0.0000 C   0  0  0  0  0  0  0  0  0  0  0  0
    8.8648   -2.2014   -0.0000 C   0  0  0  0  0  0  0  0  0  0  0  0
   11.2319   -2.7222   -0.0000 C   0  0  0  0  0  0  0  0  0  0  0  0
    9.8472   -3.3258   -0.0000 C   0  0  0  0  0  0  0  0  0  0  0  0
   12.5102   -3.4797   -0.0000 N   0  0  0  0  0  0  0  0  0  0  0  0
   13.8121   -2.7340   -0.0000 C   0  0  0  0  0  0  0  0  0  0  0  0
   15.1613   -3.3495   -0.0000 C   0  0  0  0  0  0  0  0  0  0  0  0
   13.9778   -1.2309   -0.0000 C   0  0  0  0  0  0  0  0  0  0  0  0
   16.1674   -2.2369   -0.0000 C   0  0  0  0  0  0  0  0  0  0  0  0
   15.4454   -0.9232   -0.0000 C   0  0  0  0  0  0  0  0  0  0  0  0
  1  2  1  0
  1  3  1  0
  2  4  1  0
  2  5  2  0
  3  6  1  0
  3  7  2  0
  4  8  2  0
  4  9  1  0
  6 10  2  0
  6 11  1  0
  8 12  1  0
  9 13  2  0
 14 11  1  1
 11 15  1  0
 12 16  2  0
 14 17  1  0
 14 18  1  0
 16 19  1  0
 17 20  1  0
 18 21  1  0
 19 22  1  0
 20 23  1  0
 23 24  2  0
 23 25  1  0
 25 26  1  0
 25 27  1  0
 26 28  1  0
 27 29  1  0
 28 30  1  6
 30 31  1  0
 31 32  1  0
 31 33  1  0
 32 34  1  0
 33 35  1  0
  5  7  1  0
 13 16  1  0
 20 21  1  0
 28 29  1  0
 34 35  1  0
M  END
>  <MolRegNo>  (1) 
359474

>  <m>  (1) 
=

>  <Value>  (1) 
2600

>  <Unit>  (1) 
nM

>  <Type>  (1) 
IC50

>  <pValue>  (1) 
5.58

>  <Ligand Efficiency>  (1) 
0

>  <Binding Efficiency>  (1) 
0

>  <Surface Efficiency>  (1) 
0

>  <Assay Index>  (1) 
268140

>  <Assay Category>  (1) 


>  <Assay Organism>  (1) 
Homo sapiens

>  <Target ID>  (1) 
11365

>  <Target Name>  (1) 
Cytochrome P450 2D6

>  <Target Organism>  (1) 
Homo sapiens

>  <Target Description>  (1) 
Target is a single protein chain

>  <Sequence Accession>  (1) 
P10635

>  <Reference>  (1) 
Bioorg Med Chem Lett 16 (18), 4922-4930 (2006)

>  <Pubmed ID>  (1) 
16824755

>  <DOI>  (1) 
10.1016/j.bmcl.2006.06.049

$$$$
