4wnv_ligand_828
     RDKit          2D

 37 38  0  0  0  0  0  0  0  0999 V2000
    0.0000   -0.0000   -0.0000 F   0  0  0  0  0  0  0  0  0  0  0  0
    1.2924   -0.7419   -0.0000 C   0  0  0  0  0  0  0  0  0  0  0  0
    2.5847    0.0239   -0.0000 C   0  0  0  0  0  0  0  0  0  0  0  0
    1.2804   -2.2497   -0.0000 C   0  0  0  0  0  0  0  0  0  0  0  0
    2.5728    1.5437   -0.0000 F   0  0  0  0  0  0  0  0  0  0  0  0
    3.8771   -0.7180   -0.0000 C   0  0  0  0  0  0  0  0  0  0  0  0
    2.5728   -2.9916   -0.0000 C   0  0  0  0  0  0  0  0  0  0  0  0
    3.8651   -2.2257   -0.0000 C   0  0  0  0  0  0  0  0  0  0  0  0
    2.5608   -4.4874   -0.0000 F   0  0  0  0  0  0  0  0  0  0  0  0
    5.1695   -2.9677   -0.0000 C   0  0  0  0  0  0  0  0  0  0  0  0
    6.4618   -2.2018   -0.0000 C   0  0  0  0  0  0  0  0  0  0  0  0
    5.1575   -4.4635   -0.0000 C   0  0  0  0  0  0  0  0  0  0  0  0
    6.4499   -0.6821   -0.0000 N   0  0  0  0  0  0  0  0  0  0  0  0
    7.7542   -2.9557   -0.0000 C   0  0  0  0  0  0  0  0  0  0  0  0
    6.4379   -5.1934   -0.0000 C   0  0  0  0  0  0  0  0  0  0  0  0
    7.7422   -4.4515   -0.0000 N   0  0  0  0  0  0  0  0  0  0  0  0
    6.7251   -6.6653   -0.0000 N   0  0  0  0  0  0  0  0  0  0  0  0
    8.8431   -5.4686   -0.0000 C   0  0  0  0  0  0  0  0  0  0  0  0
    8.2209   -6.8208   -0.0000 C   0  0  0  0  0  0  0  0  0  0  0  0
   10.3270   -5.3131   -0.0000 C   0  0  0  0  0  0  0  0  0  0  0  0
    9.0825   -8.0294   -0.0000 N   0  0  0  0  0  0  0  0  0  0  0  0
   11.1886   -6.5217   -0.0000 C   0  0  0  0  0  0  0  0  0  0  0  0
   10.5663   -7.8739   -0.0000 C   0  0  0  0  0  0  0  0  0  0  0  0
    5.1695   -9.1902   -0.0000 F   0  0  0  0  0  0  0  0  0  0  0  0
    6.4618   -9.9441   -0.0000 C   0  0  0  0  0  0  0  0  0  0  0  0
    6.4379  -11.4398   -0.0000 F   0  0  0  0  0  0  0  0  0  0  0  0
    6.0669   -8.4722   -0.0000 F   0  0  0  0  0  0  0  0  0  0  0  0
    7.7662   -9.1902   -0.0000 C   0  0  0  0  0  0  0  0  0  0  0  0
    7.7662   -7.6704   -0.0000 O   0  0  0  0  0  0  0  0  0  0  0  0
    9.0585   -9.9441   -0.0000 O   0  0  0  0  0  0  0  0  0  0  0  0
    7.6585    0.0957   -0.0000 F   0  0  0  0  0  0  0  0  0  0  0  0
    8.9508   -0.6582   -0.0000 C   0  0  0  0  0  0  0  0  0  0  0  0
    8.9269   -2.1539   -0.0000 F   0  0  0  0  0  0  0  0  0  0  0  0
    8.5560    0.8137   -0.0000 F   0  0  0  0  0  0  0  0  0  0  0  0
   10.2552    0.0957   -0.0000 C   0  0  0  0  0  0  0  0  0  0  0  0
   10.2552    1.6155   -0.0000 O   0  0  0  0  0  0  0  0  0  0  0  0
   11.5475   -0.6582   -0.0000 O   0  0  0  0  0  0  0  0  0  0  0  0
  1  2  1  0
  2  3  2  0
  2  4  1  0
  3  5  1  0
  3  6  1  0
  4  7  2  0
  6  8  2  0
  7  9  1  0
 10  8  1  6
 10 11  1  0
 10 12  1  0
 11 13  1  1
 11 14  1  0
 12 15  1  0
 14 16  1  0
 15 17  2  0
 16 18  1  0
 17 19  1  0
 18 20  2  0
 19 21  2  0
 20 22  1  0
 21 23  1  0
 24 25  1  0
 25 26  1  0
 25 27  1  0
 25 28  1  0
 28 29  2  0
 28 30  1  0
 31 32  1  0
 32 33  1  0
 32 34  1  0
 32 35  1  0
 35 36  2  0
 35 37  1  0
  7  8  1  0
 15 16  1  0
 18 19  1  0
 22 23  2  0
M  END
>  <MolRegNo>  (1) 
558801

>  <m>  (1) 
=

>  <Value>  (1) 
5200

>  <Unit>  (1) 
nM

>  <Type>  (1) 
IC50

>  <pValue>  (1) 
5.28

>  <Ligand Efficiency>  (1) 
0

>  <Binding Efficiency>  (1) 
0

>  <Surface Efficiency>  (1) 
0

>  <Assay Index>  (1) 
427460

>  <Assay Category>  (1) 


>  <Assay Organism>  (1) 


>  <Target ID>  (1) 
11365

>  <Target Name>  (1) 
Cytochrome P450 2D6

>  <Target Organism>  (1) 
Homo sapiens

>  <Target Description>  (1) 
Target is a single protein chain

>  <Sequence Accession>  (1) 
P10635

>  <Reference>  (1) 
Bioorg Med Chem Lett 19 (15), 4097-4101 (2009)

>  <Pubmed ID>  (1) 
19539471

>  <DOI>  (1) 
10.1016/j.bmcl.2009.06.011

$$$$
