4wnv_ligand_85
     RDKit          2D

 49 54  0  0  1  0  0  0  0  0999 V2000
    0.0000   -0.0000   -0.0000 S   0  0  0  0  0  0  0  0  0  0  0  0
    0.1477    1.4896   -0.0000 C   0  0  0  0  0  0  0  0  0  0  0  0
   -1.4773   -0.3078   -0.0000 C   0  0  0  0  0  0  0  0  0  0  0  0
   -1.2434    2.1175   -0.0000 C   0  0  0  0  0  0  0  0  0  0  0  0
    1.4281    2.2652   -0.0000 C   0  0  0  0  0  0  0  0  0  0  0  0
   -2.5114   -1.4158   -0.0000 S   0  0  0  0  0  0  0  0  0  0  0  0
   -2.2406    0.9972   -0.0000 C   0  0  0  0  0  0  0  0  0  0  0  0
    2.7330    1.5266   -0.0000 N   0  0  0  0  0  0  0  0  0  0  0  0
   -3.8903   -0.7879   -0.0000 C   0  0  0  0  0  0  0  0  0  0  0  0
   -3.7302    0.7017   -0.0000 C   0  0  0  0  0  0  0  0  0  0  0  0
    2.7207    0.0369   -0.0000 C   0  0  0  0  0  0  0  0  0  0  0  0
    4.0011    2.3022   -0.0000 C   0  0  0  0  0  0  0  0  0  0  0  0
    3.9888   -0.6894   -0.0000 C   0  0  0  0  0  0  0  0  0  0  0  0
    5.2814    1.5512   -0.0000 C   0  0  0  0  0  0  0  0  0  0  0  0
    5.2691    0.0616   -0.0000 N   0  0  0  0  0  0  0  0  0  0  0  0
    3.9764   -2.1790   -0.0000 C   0  0  0  0  0  0  0  0  0  0  0  0
    6.5741   -0.6648   -0.0000 C   0  0  0  0  0  0  0  0  0  0  0  0
    2.6715   -2.9177   -0.0000 O   0  0  0  0  0  0  0  0  0  0  0  0
    5.2814   -2.9177   -0.0000 N   0  0  0  0  0  0  0  0  0  0  0  0
    7.8544    0.0862   -0.0000 C   0  0  0  0  0  0  0  0  0  0  0  0
    5.2691   -4.4073   -0.0000 C   0  0  0  0  0  0  0  0  0  0  0  0
    7.8544    1.6004   -0.0000 O   0  0  0  0  0  0  0  0  0  0  0  0
    9.1471   -0.6402   -0.0000 C   0  0  0  0  0  0  0  0  0  0  0  0
    3.9395   -5.1460   -0.0000 C   0  0  0  0  0  0  0  0  0  0  0  0
   10.4274    0.1108   -0.0000 C   0  0  0  0  0  0  0  0  0  0  0  0
    2.4745   -4.5920   -0.0000 F   0  0  0  0  0  0  0  0  0  0  0  0
    3.6810   -6.6972   -0.0000 F   0  0  0  0  0  0  0  0  0  0  0  0
    2.7453   -5.8354   -0.0000 F   0  0  0  0  0  0  0  0  0  0  0  0
   11.7077   -0.6402   -0.0000 C   0  0  0  0  0  0  0  0  0  0  0  0
   10.4151    1.6251   -0.0000 C   0  0  0  0  0  0  0  0  0  0  0  0
   11.6954   -2.1298   -0.0000 O   0  0  0  0  0  0  0  0  0  0  0  0
   12.9881    0.1231   -0.0000 N   0  0  0  0  0  0  0  0  0  0  0  0
    9.3317    2.7084   -0.0000 C   0  0  0  0  0  0  0  0  0  0  0  0
   14.2684   -0.6155   -0.0000 C   0  0  0  0  0  0  0  0  0  0  0  0
    9.7011    4.1980   -0.0000 C   0  0  0  0  0  0  0  0  0  0  0  0
    7.8544    2.3391   -0.0000 C   0  0  0  0  0  0  0  0  0  0  0  0
   14.2561   -2.1052   -0.0000 C   0  0  0  0  0  0  0  0  0  0  0  0
   15.5488    0.1477   -0.0000 C   0  0  0  0  0  0  0  0  0  0  0  0
    8.6177    5.2814   -0.0000 N   0  0  0  0  0  0  0  0  0  0  0  0
    6.7587    3.4225   -0.0000 C   0  0  0  0  0  0  0  0  0  0  0  0
   15.5365   -2.8438   -0.0000 C   0  0  0  0  0  0  0  0  0  0  0  0
   12.9512   -2.8192   -0.0000 C   0  0  0  0  0  0  0  0  0  0  0  0
   15.5365    1.6620   -0.0000 O   0  0  0  0  0  0  0  0  0  0  0  0
   16.8291   -0.6032   -0.0000 C   0  0  0  0  0  0  0  0  0  0  0  0
    7.1404    4.9244   -0.0000 C   0  0  0  0  0  0  0  0  0  0  0  0
   16.8291   -2.0929   -0.0000 O   0  0  0  0  0  0  0  0  0  0  0  0
   15.5118   -4.3088   -0.0000 C   0  0  0  0  0  0  0  0  0  0  0  0
   12.9388   -4.3088   -0.0000 C   0  0  0  0  0  0  0  0  0  0  0  0
   14.2192   -5.0475   -0.0000 C   0  0  0  0  0  0  0  0  0  0  0  0
  1  2  1  0
  1  3  1  0
  2  4  2  0
  2  5  1  0
  3  6  1  0
  3  7  1  0
  5  8  1  0
  6  9  1  0
  7 10  1  0
  8 11  1  0
  8 12  1  0
 11 13  1  0
 12 14  1  0
 13 15  1  0
 13 16  1  6
 15 17  1  0
 16 18  2  0
 16 19  1  0
 17 20  1  0
 19 21  1  0
 20 22  1  1
 20 23  1  0
 21 24  1  0
 25 23  1  1
 24 26  1  0
 24 27  1  0
 24 28  1  0
 25 29  1  0
 25 30  1  0
 29 31  2  0
 29 32  1  0
 30 33  1  0
 34 32  1  6
 33 35  2  0
 33 36  1  0
 34 37  1  0
 34 38  1  0
 35 39  1  0
 36 40  2  0
 37 41  2  0
 37 42  1  0
 38 43  1  6
 38 44  1  0
 39 45  2  0
 41 46  1  0
 41 47  1  0
 42 48  2  0
 47 49  2  0
  4  7  1  0
  9 10  2  0
 14 15  1  0
 40 45  1  0
 44 46  1  0
 48 49  1  0
M  END
>  <MolRegNo>  (1) 
185015

>  <m>  (1) 
=

>  <Value>  (1) 
11100

>  <Unit>  (1) 
nM

>  <Type>  (1) 
IC50

>  <pValue>  (1) 
4.96

>  <Ligand Efficiency>  (1) 
0

>  <Binding Efficiency>  (1) 
0

>  <Surface Efficiency>  (1) 
0

>  <Assay Index>  (1) 
51638

>  <Assay Category>  (1) 


>  <Assay Organism>  (1) 
Homo sapiens

>  <Target ID>  (1) 
11365

>  <Target Name>  (1) 
Cytochrome P450 2D6

>  <Target Organism>  (1) 
Homo sapiens

>  <Target Description>  (1) 
Target is a single protein chain

>  <Sequence Accession>  (1) 
P10635

>  <Reference>  (1) 
Bioorg Med Chem Lett 13 (19), 3323-3326 (2003)

>  <Pubmed ID>  (1) 
12951118

>  <DOI>  (1) 
10.1016/s0960-894x(03)00680-2

$$$$
