4wnv_ligand_79
     RDKit          2D

 19 21  0  0  0  0  0  0  0  0999 V2000
    0.0000   -0.0000   -0.0000 O   0  0  0  0  0  0  0  0  0  0  0  0
    1.2643    0.7799   -0.0000 C   0  0  0  0  0  0  0  0  0  0  0  0
   -1.3234    0.7444   -0.0000 C   0  0  0  0  0  0  0  0  0  0  0  0
    2.5759    0.0473   -0.0000 C   0  0  0  0  0  0  0  0  0  0  0  0
    1.2289    2.2923   -0.0000 C   0  0  0  0  0  0  0  0  0  0  0  0
   -2.6350   -0.0118   -0.0000 C   0  0  0  0  0  0  0  0  0  0  0  0
    3.8520    0.8271   -0.0000 C   0  0  0  0  0  0  0  0  0  0  0  0
    2.5168    3.0604   -0.0000 C   0  0  0  0  0  0  0  0  0  0  0  0
   -2.6232   -1.4888   -0.0000 N   0  0  0  0  0  0  0  0  0  0  0  0
   -3.9466    0.7326   -0.0000 C   0  0  0  0  0  0  0  0  0  0  0  0
    3.8166    2.3278   -0.0000 C   0  0  0  0  0  0  0  0  0  0  0  0
   -3.9111   -2.2451   -0.0000 C   0  0  0  0  0  0  0  0  0  0  0  0
   -5.2582   -0.0236   -0.0000 C   0  0  0  0  0  0  0  0  0  0  0  0
    5.0809    3.1076   -0.0000 N   0  0  0  0  0  0  0  0  0  0  0  0
   -5.2463   -1.5006   -0.0000 C   0  0  0  0  0  0  0  0  0  0  0  0
    5.2109    4.6201   -0.0000 C   0  0  0  0  0  0  0  0  0  0  0  0
    6.4516    2.5286   -0.0000 C   0  0  0  0  0  0  0  0  0  0  0  0
    6.6643    4.9628   -0.0000 N   0  0  0  0  0  0  0  0  0  0  0  0
    7.4205    3.6630   -0.0000 C   0  0  0  0  0  0  0  0  0  0  0  0
  1  2  1  0
  1  3  1  0
  2  4  2  0
  2  5  1  0
  3  6  1  0
  4  7  1  0
  5  8  2  0
  6  9  2  0
  6 10  1  0
  7 11  2  0
  9 12  1  0
 10 13  2  0
 11 14  1  0
 12 15  2  0
 14 16  1  0
 14 17  1  0
 16 18  2  0
 17 19  2  0
  8 11  1  0
 13 15  1  0
 18 19  1  0
M  END
>  <MolRegNo>  (1) 
186321

>  <m>  (1) 
=

>  <Value>  (1) 
1040

>  <Unit>  (1) 
nM

>  <Type>  (1) 
IC50

>  <pValue>  (1) 
5.98

>  <Ligand Efficiency>  (1) 
0

>  <Binding Efficiency>  (1) 
0

>  <Surface Efficiency>  (1) 
0

>  <Assay Index>  (1) 
51639

>  <Assay Category>  (1) 


>  <Assay Organism>  (1) 
Homo sapiens

>  <Target ID>  (1) 
11365

>  <Target Name>  (1) 
Cytochrome P450 2D6

>  <Target Organism>  (1) 
Homo sapiens

>  <Target Description>  (1) 
Target is a single protein chain

>  <Sequence Accession>  (1) 
P10635

>  <Reference>  (1) 
Bioorg Med Chem Lett 14 (2), 333-336 (2004)

>  <Pubmed ID>  (1) 
14698153

>  <DOI>  (1) 
10.1016/j.bmcl.2003.11.005

$$$$
