4wnv_ligand_833
     RDKit          2D

 24 27  0  0  0  0  0  0  0  0999 V2000
    0.0000   -0.0000   -0.0000 O   0  0  0  0  0  0  0  0  0  0  0  0
   -0.0119   -1.4887   -0.0000 C   0  0  0  0  0  0  0  0  0  0  0  0
    1.2743   -2.2271   -0.0000 N   0  0  0  0  0  0  0  0  0  0  0  0
   -1.3220   -2.2271   -0.0000 C   0  0  0  0  0  0  0  0  0  0  0  0
    1.2624   -3.7158   -0.0000 C   0  0  0  0  0  0  0  0  0  0  0  0
    2.5606   -1.4649   -0.0000 C   0  0  0  0  0  0  0  0  0  0  0  0
   -2.6320   -1.4649   -0.0000 C   0  0  0  0  0  0  0  0  0  0  0  0
   -1.3339   -3.7277   -0.0000 C   0  0  0  0  0  0  0  0  0  0  0  0
    2.4653   -4.5852   -0.0000 C   0  0  0  0  0  0  0  0  0  0  0  0
    0.0357   -4.5852   -0.0000 C   0  0  0  0  0  0  0  0  0  0  0  0
    3.8468   -2.2033   -0.0000 C   0  0  0  0  0  0  0  0  0  0  0  0
   -3.9421   -2.2033   -0.0000 C   0  0  0  0  0  0  0  0  0  0  0  0
   -2.6439    0.0476   -0.0000 C   0  0  0  0  0  0  0  0  0  0  0  0
   -2.6559   -4.4661   -0.0000 C   0  0  0  0  0  0  0  0  0  0  0  0
    1.9889   -6.0025   -0.0000 N   0  0  0  0  0  0  0  0  0  0  0  0
    0.4883   -6.0025   -0.0000 C   0  0  0  0  0  0  0  0  0  0  0  0
    4.2398   -3.6444   -0.0000 C   0  0  0  0  0  0  0  0  0  0  0  0
    5.2879   -1.7984   -0.0000 C   0  0  0  0  0  0  0  0  0  0  0  0
   -3.9540   -3.7039   -0.0000 C   0  0  0  0  0  0  0  0  0  0  0  0
   -1.4530    0.9528   -0.0000 C   0  0  0  0  0  0  0  0  0  0  0  0
   -3.8826    0.9409   -0.0000 C   0  0  0  0  0  0  0  0  0  0  0  0
    5.6809   -3.2394   -0.0000 C   0  0  0  0  0  0  0  0  0  0  0  0
   -1.9294    2.3938   -0.0000 C   0  0  0  0  0  0  0  0  0  0  0  0
   -3.4300    2.3819   -0.0000 C   0  0  0  0  0  0  0  0  0  0  0  0
  1  2  2  0
  2  3  1  0
  2  4  1  0
  5  3  1  6
  3  6  1  0
  4  7  1  0
  4  8  2  0
  5  9  1  0
  5 10  1  0
  6 11  1  0
  7 12  2  0
  7 13  1  0
  8 14  1  0
  9 15  1  0
 10 16  1  0
 11 17  1  0
 11 18  1  0
 12 19  1  0
 13 20  1  0
 13 21  1  0
 17 22  1  0
 20 23  1  0
 21 24  1  0
 14 19  2  0
 15 16  1  0
 18 22  1  0
 23 24  1  0
M  END
>  <MolRegNo>  (1) 
562588

>  <m>  (1) 
=

>  <Value>  (1) 
430

>  <Unit>  (1) 
nM

>  <Type>  (1) 
IC50

>  <pValue>  (1) 
6.37

>  <Ligand Efficiency>  (1) 
0

>  <Binding Efficiency>  (1) 
0

>  <Surface Efficiency>  (1) 
0

>  <Assay Index>  (1) 
427125

>  <Assay Category>  (1) 


>  <Assay Organism>  (1) 


>  <Target ID>  (1) 
11365

>  <Target Name>  (1) 
Cytochrome P450 2D6

>  <Target Organism>  (1) 
Homo sapiens

>  <Target Description>  (1) 
Target is a single protein chain

>  <Sequence Accession>  (1) 
P10635

>  <Reference>  (1) 
Bioorg Med Chem Lett 19 (16), 4579-4583 (2009)

>  <Pubmed ID>  (1) 
19616432

>  <DOI>  (1) 
10.1016/j.bmcl.2009.06.096

$$$$
