4wnv_ligand_315
     RDKit          2D

 27 30  0  0  0  0  0  0  0  0999 V2000
    0.0000   -0.0000   -0.0000 Cl  0  0  0  0  0  0  0  0  0  0  0  0
   -1.3137    0.7575   -0.0000 C   0  0  0  0  0  0  0  0  0  0  0  0
   -2.6156    0.0118   -0.0000 C   0  0  0  0  0  0  0  0  0  0  0  0
   -1.3374    2.2724   -0.0000 C   0  0  0  0  0  0  0  0  0  0  0  0
   -3.9174    0.7693   -0.0000 C   0  0  0  0  0  0  0  0  0  0  0  0
   -2.6511    3.0180   -0.0000 C   0  0  0  0  0  0  0  0  0  0  0  0
   -3.9293    2.2724   -0.0000 C   0  0  0  0  0  0  0  0  0  0  0  0
   -5.2430    3.0298   -0.0000 C   0  0  0  0  0  0  0  0  0  0  0  0
   -6.5449    2.2960   -0.0000 N   0  0  0  0  0  0  0  0  0  0  0  0
   -5.2667    4.5447   -0.0000 C   0  0  0  0  0  0  0  0  0  0  0  0
   -7.8467    3.0535   -0.0000 C   0  0  0  0  0  0  0  0  0  0  0  0
   -3.9885    5.3140   -0.0000 O   0  0  0  0  0  0  0  0  0  0  0  0
   -6.5804    5.2903   -0.0000 C   0  0  0  0  0  0  0  0  0  0  0  0
   -7.8586    4.5684   -0.0000 C   0  0  0  0  0  0  0  0  0  0  0  0
   -9.1486    2.3079   -0.0000 C   0  0  0  0  0  0  0  0  0  0  0  0
   -6.6040    6.7934   -0.0000 C   0  0  0  0  0  0  0  0  0  0  0  0
   -9.1604    5.3258   -0.0000 C   0  0  0  0  0  0  0  0  0  0  0  0
   -9.1604    0.8285   -0.0000 C   0  0  0  0  0  0  0  0  0  0  0  0
  -10.4505    3.0653   -0.0000 C   0  0  0  0  0  0  0  0  0  0  0  0
   -7.9177    7.5509   -0.0000 O   0  0  0  0  0  0  0  0  0  0  0  0
   -5.3258    7.5627   -0.0000 O   0  0  0  0  0  0  0  0  0  0  0  0
  -10.4623    4.5921   -0.0000 C   0  0  0  0  0  0  0  0  0  0  0  0
  -10.4623    0.0947   -0.0000 C   0  0  0  0  0  0  0  0  0  0  0  0
   -7.8704    0.1065   -0.0000 C   0  0  0  0  0  0  0  0  0  0  0  0
  -10.4741   -1.3847   -0.0000 C   0  0  0  0  0  0  0  0  0  0  0  0
   -7.8704   -1.3729   -0.0000 C   0  0  0  0  0  0  0  0  0  0  0  0
   -9.1841   -2.1185   -0.0000 C   0  0  0  0  0  0  0  0  0  0  0  0
  1  2  1  0
  2  3  2  0
  2  4  1  0
  3  5  1  0
  4  6  2  0
  5  7  2  0
  7  8  1  0
  8  9  2  0
  8 10  1  0
  9 11  1  0
 10 12  1  0
 10 13  2  0
 11 14  2  0
 11 15  1  0
 13 16  1  0
 14 17  1  0
 15 18  1  0
 15 19  2  0
 16 20  2  0
 16 21  1  0
 17 22  2  0
 18 23  2  0
 18 24  1  0
 23 25  1  0
 24 26  2  0
 25 27  2  0
  6  7  1  0
 13 14  1  0
 19 22  1  0
 26 27  1  0
M  END
>  <MolRegNo>  (1) 
365553

>  <m>  (1) 
=

>  <Value>  (1) 
151000

>  <Unit>  (1) 
nM

>  <Type>  (1) 
IC50

>  <pValue>  (1) 
0

>  <Ligand Efficiency>  (1) 
0

>  <Binding Efficiency>  (1) 
0

>  <Surface Efficiency>  (1) 
0

>  <Assay Index>  (1) 
272192

>  <Assay Category>  (1) 


>  <Assay Organism>  (1) 
Homo sapiens

>  <Target ID>  (1) 
11365

>  <Target Name>  (1) 
Cytochrome P450 2D6

>  <Target Organism>  (1) 
Homo sapiens

>  <Target Description>  (1) 
Target is a single protein chain

>  <Sequence Accession>  (1) 
P10635

>  <Reference>  (1) 
J Med Chem 50 (1), 21-39 (2007)

>  <Pubmed ID>  (1) 
17201408

>  <DOI>  (1) 
10.1021/jm0602256

$$$$
