4wnv_ligand_209
     RDKit          2D

 35 38  0  0  1  0  0  0  0  0999 V2000
    0.0000   -0.0000   -0.0000 S   0  0  0  0  0  0  0  0  0  0  0  0
    1.4908    0.0119   -0.0000 O   0  0  0  0  0  0  0  0  0  0  0  0
   -1.5147    0.0119   -0.0000 O   0  0  0  0  0  0  0  0  0  0  0  0
   -0.0119    1.5147   -0.0000 N   0  0  0  0  0  0  0  0  0  0  0  0
   -0.0239   -1.4908   -0.0000 C   0  0  0  0  0  0  0  0  0  0  0  0
    1.2762    2.2780   -0.0000 C   0  0  0  0  0  0  0  0  0  0  0  0
    1.2642   -2.2422   -0.0000 C   0  0  0  0  0  0  0  0  0  0  0  0
    2.5523    1.5385   -0.0000 C   0  0  0  0  0  0  0  0  0  0  0  0
    1.2642    3.7927   -0.0000 C   0  0  0  0  0  0  0  0  0  0  0  0
    1.2404   -3.7331   -0.0000 C   0  0  0  0  0  0  0  0  0  0  0  0
    3.8285    2.2899   -0.0000 C   0  0  0  0  0  0  0  0  0  0  0  0
    2.5523    4.5441   -0.0000 C   0  0  0  0  0  0  0  0  0  0  0  0
    3.8285    3.8046   -0.0000 C   0  0  0  0  0  0  0  0  0  0  0  0
    5.1166    1.5505   -0.0000 C   0  0  0  0  0  0  0  0  0  0  0  0
    5.1166    4.5679   -0.0000 O   0  0  0  0  0  0  0  0  0  0  0  0
    6.4166    2.3138   -0.0000 C   0  0  0  0  0  0  0  0  0  0  0  0
    6.4166    3.8285   -0.0000 C   0  0  0  0  0  0  0  0  0  0  0  0
    7.7047    4.5918   -0.0000 C   0  0  0  0  0  0  0  0  0  0  0  0
    7.6927    6.1065   -0.0000 O   0  0  0  0  0  0  0  0  0  0  0  0
    8.9928    3.8523   -0.0000 N   0  0  0  0  0  0  0  0  0  0  0  0
   10.2808    4.6156   -0.0000 C   0  0  0  0  0  0  0  0  0  0  0  0
    8.9808    2.3615   -0.0000 C   0  0  0  0  0  0  0  0  0  0  0  0
   10.2689    6.1303   -0.0000 C   0  0  0  0  0  0  0  0  0  0  0  0
   11.5689    3.8762   -0.0000 C   0  0  0  0  0  0  0  0  0  0  0  0
    8.9570    6.8937   -0.0000 C   0  0  0  0  0  0  0  0  0  0  0  0
   11.5689    6.8937   -0.0000 C   0  0  0  0  0  0  0  0  0  0  0  0
   12.8570    4.6395   -0.0000 N   0  0  0  0  0  0  0  0  0  0  0  0
    8.9450    8.4083   -0.0000 C   0  0  0  0  0  0  0  0  0  0  0  0
   11.5570    8.4203   -0.0000 C   0  0  0  0  0  0  0  0  0  0  0  0
   14.2167    4.0432   -0.0000 C   0  0  0  0  0  0  0  0  0  0  0  0
   13.0001    6.1542   -0.0000 C   0  0  0  0  0  0  0  0  0  0  0  0
   10.2331    9.1717   -0.0000 C   0  0  0  0  0  0  0  0  0  0  0  0
   15.2066    5.1762   -0.0000 C   0  0  0  0  0  0  0  0  0  0  0  0
   14.4552    6.4762   -0.0000 C   0  0  0  0  0  0  0  0  0  0  0  0
   16.6855    5.0331   -0.0000 O   0  0  0  0  0  0  0  0  0  0  0  0
  1  2  2  0
  1  3  2  0
  1  4  1  0
  1  5  1  0
  4  6  1  0
  5  7  1  0
  6  8  2  0
  6  9  1  0
  7 10  1  0
  8 11  1  0
  9 12  2  0
 11 13  2  0
 11 14  1  0
 13 15  1  0
 14 16  1  0
 15 17  1  0
 17 18  1  1
 18 19  2  0
 18 20  1  0
 21 20  1  0
 20 22  1  0
 21 23  1  0
 21 24  1  1
 23 25  2  0
 23 26  1  0
 24 27  1  0
 25 28  1  0
 26 29  2  0
 27 30  1  0
 27 31  1  0
 28 32  2  0
 30 33  1  0
 31 34  1  0
 33 35  1  6
 12 13  1  0
 16 17  1  0
 29 32  1  0
 33 34  1  0
M  END
>  <MolRegNo>  (1) 
332024

>  <m>  (1) 
=

>  <Value>  (1) 
6700

>  <Unit>  (1) 
nM

>  <Type>  (1) 
IC50

>  <pValue>  (1) 
5.17

>  <Ligand Efficiency>  (1) 
0

>  <Binding Efficiency>  (1) 
0

>  <Surface Efficiency>  (1) 
0

>  <Assay Index>  (1) 
253815

>  <Assay Category>  (1) 


>  <Assay Organism>  (1) 
Homo sapiens

>  <Target ID>  (1) 
11365

>  <Target Name>  (1) 
Cytochrome P450 2D6

>  <Target Organism>  (1) 
Homo sapiens

>  <Target Description>  (1) 
Target is a single protein chain

>  <Sequence Accession>  (1) 
P10635

>  <Reference>  (1) 
Bioorg Med Chem Lett 15 (23), 5114-5119 (2005)

>  <Pubmed ID>  (1) 
16203140

>  <DOI>  (1) 
10.1016/j.bmcl.2005.08.094

$$$$
