4wnv_ligand_795
     RDKit          2D

 29 32  0  0  0  0  0  0  0  0999 V2000
    0.0000   -0.0000   -0.0000 O   0  0  0  0  0  0  0  0  0  0  0  0
    1.4515    0.3540   -0.0000 C   0  0  0  0  0  0  0  0  0  0  0  0
    2.4663   -0.7198   -0.0000 N   0  0  0  0  0  0  0  0  0  0  0  0
    1.8645    1.8055   -0.0000 C   0  0  0  0  0  0  0  0  0  0  0  0
    2.0297   -2.1477   -0.0000 C   0  0  0  0  0  0  0  0  0  0  0  0
    3.9178   -0.3658   -0.0000 C   0  0  0  0  0  0  0  0  0  0  0  0
    3.3160    2.1595   -0.0000 C   0  0  0  0  0  0  0  0  0  0  0  0
    0.8260    2.9030   -0.0000 C   0  0  0  0  0  0  0  0  0  0  0  0
    3.0446   -3.2216   -0.0000 C   0  0  0  0  0  0  0  0  0  0  0  0
    4.9327   -1.4397   -0.0000 C   0  0  0  0  0  0  0  0  0  0  0  0
    3.7290    3.6110   -0.0000 C   0  0  0  0  0  0  0  0  0  0  0  0
    1.2391    4.3544   -0.0000 C   0  0  0  0  0  0  0  0  0  0  0  0
    2.6905    4.7085   -0.0000 C   0  0  0  0  0  0  0  0  0  0  0  0
    3.1036    6.1599   -0.0000 C   0  0  0  0  0  0  0  0  0  0  0  0
    2.0651    7.2574   -0.0000 C   0  0  0  0  0  0  0  0  0  0  0  0
    4.5551    6.5140   -0.0000 C   0  0  0  0  0  0  0  0  0  0  0  0
    2.4781    8.7089   -0.0000 C   0  0  0  0  0  0  0  0  0  0  0  0
    0.5900    6.9270   -0.0000 C   0  0  0  0  0  0  0  0  0  0  0  0
    4.9681    7.9654   -0.0000 C   0  0  0  0  0  0  0  0  0  0  0  0
    3.9296    9.0629   -0.0000 O   0  0  0  0  0  0  0  0  0  0  0  0
    1.4397    9.8063   -0.0000 C   0  0  0  0  0  0  0  0  0  0  0  0
   -0.4484    8.0244   -0.0000 C   0  0  0  0  0  0  0  0  0  0  0  0
    5.9003    6.8090   -0.0000 C   0  0  0  0  0  0  0  0  0  0  0  0
    5.2749    9.4405   -0.0000 C   0  0  0  0  0  0  0  0  0  0  0  0
   -0.0354    9.4759   -0.0000 C   0  0  0  0  0  0  0  0  0  0  0  0
    7.3872    6.8326   -0.0000 C   0  0  0  0  0  0  0  0  0  0  0  0
    6.6084   10.1132   -0.0000 C   0  0  0  0  0  0  0  0  0  0  0  0
    8.2959    8.0244   -0.0000 N   0  0  0  0  0  0  0  0  0  0  0  0
    7.9536    9.4877   -0.0000 C   0  0  0  0  0  0  0  0  0  0  0  0
  1  2  2  0
  2  3  1  0
  2  4  1  0
  3  5  1  0
  3  6  1  0
  4  7  2  0
  4  8  1  0
  5  9  1  0
  6 10  1  0
  7 11  1  0
  8 12  2  0
 11 13  2  0
 13 14  1  0
 14 15  1  0
 14 16  2  0
 15 17  2  0
 15 18  1  0
 16 19  1  0
 17 20  1  0
 17 21  1  0
 18 22  2  0
 19 23  1  0
 19 24  1  0
 21 25  2  0
 23 26  1  0
 24 27  1  0
 26 28  1  0
 27 29  1  0
 12 13  1  0
 19 20  1  0
 22 25  1  0
 28 29  1  0
M  END
>  <MolRegNo>  (1) 
560911

>  <m>  (1) 
=

>  <Value>  (1) 
2600

>  <Unit>  (1) 
nM

>  <Type>  (1) 
IC50

>  <pValue>  (1) 
5.58

>  <Ligand Efficiency>  (1) 
0

>  <Binding Efficiency>  (1) 
0

>  <Surface Efficiency>  (1) 
0

>  <Assay Index>  (1) 
428577

>  <Assay Category>  (1) 


>  <Assay Organism>  (1) 
Homo sapiens

>  <Target ID>  (1) 
11365

>  <Target Name>  (1) 
Cytochrome P450 2D6

>  <Target Organism>  (1) 
Homo sapiens

>  <Target Description>  (1) 
Target is a single protein chain

>  <Sequence Accession>  (1) 
P10635

>  <Reference>  (1) 
J Med Chem 52 (18), 5685-5702 (2009)

>  <Pubmed ID>  (1) 
19694468

>  <DOI>  (1) 
10.1021/jm900773n

$$$$
