4wnv_ligand_967
     RDKit          2D

 29 32  0  0  0  0  0  0  0  0999 V2000
    0.0000   -0.0000   -0.0000 S   0  0  0  0  0  0  0  0  0  0  0  0
    0.7027    1.2800   -0.0000 O   0  0  0  0  0  0  0  0  0  0  0  0
   -0.7529    1.2800   -0.0000 O   0  0  0  0  0  0  0  0  0  0  0  0
    1.2549   -0.7153   -0.0000 N   0  0  0  0  0  0  0  0  0  0  0  0
   -1.2800   -0.7027   -0.0000 C   0  0  0  0  0  0  0  0  0  0  0  0
    2.5098    0.0251   -0.0000 C   0  0  0  0  0  0  0  0  0  0  0  0
   -2.5474    0.0502   -0.0000 C   0  0  0  0  0  0  0  0  0  0  0  0
   -1.3051   -2.1459   -0.0000 C   0  0  0  0  0  0  0  0  0  0  0  0
    3.7521   -0.6902   -0.0000 C   0  0  0  0  0  0  0  0  0  0  0  0
    2.4972    1.5059   -0.0000 C   0  0  0  0  0  0  0  0  0  0  0  0
   -3.8274   -0.6525   -0.0000 C   0  0  0  0  0  0  0  0  0  0  0  0
   -2.5851   -2.8612   -0.0000 C   0  0  0  0  0  0  0  0  0  0  0  0
    5.0196    0.0502   -0.0000 C   0  0  0  0  0  0  0  0  0  0  0  0
    3.7396    2.2463   -0.0000 C   0  0  0  0  0  0  0  0  0  0  0  0
   -3.8525   -2.0957   -0.0000 C   0  0  0  0  0  0  0  0  0  0  0  0
    4.9945    1.5310   -0.0000 C   0  0  0  0  0  0  0  0  0  0  0  0
    6.2619   -0.9286   -0.0000 C   0  0  0  0  0  0  0  0  0  0  0  0
   -5.1325   -2.7984   -0.0000 C   0  0  0  0  0  0  0  0  0  0  0  0
    6.1490    2.4972   -0.0000 C   0  0  0  0  0  0  0  0  0  0  0  0
    7.7427   -0.5647   -0.0000 C   0  0  0  0  0  0  0  0  0  0  0  0
   -6.4125   -3.5012   -0.0000 N   0  0  0  0  0  0  0  0  0  0  0  0
    7.6172    2.2588   -0.0000 C   0  0  0  0  0  0  0  0  0  0  0  0
    8.3702    0.8659   -0.0000 N   0  0  0  0  0  0  0  0  0  0  0  0
    9.9388    0.9286   -0.0000 C   0  0  0  0  0  0  0  0  0  0  0  0
   10.7670   -0.4016   -0.0000 C   0  0  0  0  0  0  0  0  0  0  0  0
   12.3482   -0.3388   -0.0000 N   0  0  0  0  0  0  0  0  0  0  0  0
   10.3153   -1.9074   -0.0000 C   0  0  0  0  0  0  0  0  0  0  0  0
   12.8627   -1.8196   -0.0000 N   0  0  0  0  0  0  0  0  0  0  0  0
   11.6078   -2.7859   -0.0000 C   0  0  0  0  0  0  0  0  0  0  0  0
  1  2  2  0
  1  3  2  0
  1  4  1  0
  1  5  1  0
  4  6  1  0
  5  7  2  0
  5  8  1  0
  6  9  2  0
  6 10  1  0
  7 11  1  0
  8 12  2  0
  9 13  1  0
 10 14  2  0
 11 15  2  0
 13 16  2  0
 13 17  1  0
 15 18  1  0
 16 19  1  0
 17 20  1  0
 18 21  3  0
 19 22  1  0
 20 23  1  0
 23 24  1  0
 24 25  1  0
 25 26  2  0
 25 27  1  0
 26 28  1  0
 27 29  2  0
 12 15  1  0
 14 16  1  0
 22 23  1  0
 28 29  1  0
M  END
>  <MolRegNo>  (1) 
617185

>  <m>  (1) 
=

>  <Value>  (1) 
7900

>  <Unit>  (1) 
nM

>  <Type>  (1) 
IC50

>  <pValue>  (1) 
5.1

>  <Ligand Efficiency>  (1) 
0

>  <Binding Efficiency>  (1) 
0

>  <Surface Efficiency>  (1) 
0

>  <Assay Index>  (1) 
468007

>  <Assay Category>  (1) 


>  <Assay Organism>  (1) 
Homo sapiens

>  <Target ID>  (1) 
11365

>  <Target Name>  (1) 
Cytochrome P450 2D6

>  <Target Organism>  (1) 
Homo sapiens

>  <Target Description>  (1) 
Target is a single protein chain

>  <Sequence Accession>  (1) 
P10635

>  <Reference>  (1) 
Bioorg Med Chem Lett 19 (22), 6452-6458 (2009)

>  <Pubmed ID>  (1) 
19804969

>  <DOI>  (1) 
10.1016/j.bmcl.2009.09.027

$$$$
