4wnv_ligand_952
     RDKit          2D

 31 34  0  0  0  0  0  0  0  0999 V2000
    0.0000   -0.0000   -0.0000 O   0  0  0  0  0  0  0  0  0  0  0  0
   -1.3124   -0.7397   -0.0000 C   0  0  0  0  0  0  0  0  0  0  0  0
   -1.3243   -2.2311   -0.0000 N   0  0  0  0  0  0  0  0  0  0  0  0
   -2.6248    0.0239   -0.0000 C   0  0  0  0  0  0  0  0  0  0  0  0
   -0.0358   -2.9708   -0.0000 C   0  0  0  0  0  0  0  0  0  0  0  0
   -2.6248   -2.9708   -0.0000 C   0  0  0  0  0  0  0  0  0  0  0  0
   -3.9372   -0.7158   -0.0000 O   0  0  0  0  0  0  0  0  0  0  0  0
   -0.0477   -4.4740   -0.0000 N   0  0  0  0  0  0  0  0  0  0  0  0
    1.2527   -2.2072   -0.0000 C   0  0  0  0  0  0  0  0  0  0  0  0
   -3.9372   -2.2191   -0.0000 C   0  0  0  0  0  0  0  0  0  0  0  0
    1.2408   -5.2138   -0.0000 C   0  0  0  0  0  0  0  0  0  0  0  0
    2.5413   -2.9469   -0.0000 C   0  0  0  0  0  0  0  0  0  0  0  0
    1.2289   -6.7051   -0.0000 N   0  0  0  0  0  0  0  0  0  0  0  0
    2.5293   -4.4502   -0.0000 C   0  0  0  0  0  0  0  0  0  0  0  0
    3.9730   -2.4577   -0.0000 C   0  0  0  0  0  0  0  0  0  0  0  0
   -0.0835   -7.4448   -0.0000 C   0  0  0  0  0  0  0  0  0  0  0  0
    3.9730   -4.9036   -0.0000 N   0  0  0  0  0  0  0  0  0  0  0  0
    4.8558   -3.6628   -0.0000 C   0  0  0  0  0  0  0  0  0  0  0  0
    4.4263   -1.0141   -0.0000 C   0  0  0  0  0  0  0  0  0  0  0  0
   -0.0954   -8.9362   -0.0000 C   0  0  0  0  0  0  0  0  0  0  0  0
    4.7127   -6.1921   -0.0000 C   0  0  0  0  0  0  0  0  0  0  0  0
    6.3472   -3.6389   -0.0000 C   0  0  0  0  0  0  0  0  0  0  0  0
    1.1931   -9.6639   -0.0000 C   0  0  0  0  0  0  0  0  0  0  0  0
   -1.4078   -9.6639   -0.0000 C   0  0  0  0  0  0  0  0  0  0  0  0
    3.9491   -7.4806   -0.0000 C   0  0  0  0  0  0  0  0  0  0  0  0
    1.1931  -11.1553   -0.0000 C   0  0  0  0  0  0  0  0  0  0  0  0
    2.4816   -8.8884   -0.0000 C   0  0  0  0  0  0  0  0  0  0  0  0
   -1.4198  -11.1553   -0.0000 C   0  0  0  0  0  0  0  0  0  0  0  0
   -2.7202   -8.9004   -0.0000 C   0  0  0  0  0  0  0  0  0  0  0  0
    4.6888   -8.7691   -0.0000 O   0  0  0  0  0  0  0  0  0  0  0  0
   -0.1312  -11.9069   -0.0000 C   0  0  0  0  0  0  0  0  0  0  0  0
  1  2  2  0
  2  3  1  0
  2  4  1  0
  3  5  1  0
  3  6  1  0
  4  7  1  0
  5  8  2  0
  5  9  1  0
  6 10  1  0
  8 11  1  0
  9 12  2  0
 11 13  1  0
 11 14  2  0
 12 15  1  0
 13 16  1  0
 14 17  1  0
 15 18  2  0
 15 19  1  0
 16 20  1  0
 17 21  1  0
 18 22  1  0
 20 23  2  0
 20 24  1  0
 21 25  1  0
 23 26  1  0
 23 27  1  0
 24 28  2  0
 24 29  1  0
 25 30  1  0
 26 31  2  0
  7 10  1  0
 12 14  1  0
 17 18  1  0
 28 31  1  0
M  END
>  <MolRegNo>  (1) 
611749

>  <m>  (1) 
=

>  <Value>  (1) 
36000

>  <Unit>  (1) 
nM

>  <Type>  (1) 
IC50

>  <pValue>  (1) 
4.44

>  <Ligand Efficiency>  (1) 
0

>  <Binding Efficiency>  (1) 
0

>  <Surface Efficiency>  (1) 
0

>  <Assay Index>  (1) 
464697

>  <Assay Category>  (1) 


>  <Assay Organism>  (1) 


>  <Target ID>  (1) 
11365

>  <Target Name>  (1) 
Cytochrome P450 2D6

>  <Target Organism>  (1) 
Homo sapiens

>  <Target Description>  (1) 
Target is a single protein chain

>  <Sequence Accession>  (1) 
P10635

>  <Reference>  (1) 
Bioorg Med Chem Lett 19 (23), 6813-6817 (2009)

>  <Pubmed ID>  (1) 
19846298

>  <DOI>  (1) 
10.1016/j.bmcl.2009.07.002

$$$$
