4wnv_ligand_790
     RDKit          2D

 29 33  0  0  0  0  0  0  0  0999 V2000
    0.0000   -0.0000   -0.0000 O   0  0  0  0  0  0  0  0  0  0  0  0
    1.4499   -0.3452   -0.0000 C   0  0  0  0  0  0  0  0  0  0  0  0
    2.4856    0.7480   -0.0000 N   0  0  0  0  0  0  0  0  0  0  0  0
    1.8527   -1.7836   -0.0000 C   0  0  0  0  0  0  0  0  0  0  0  0
    2.0598    2.2094   -0.0000 C   0  0  0  0  0  0  0  0  0  0  0  0
    3.9355    0.4028   -0.0000 C   0  0  0  0  0  0  0  0  0  0  0  0
    0.7940   -2.8538   -0.0000 C   0  0  0  0  0  0  0  0  0  0  0  0
    3.3026   -2.1288   -0.0000 C   0  0  0  0  0  0  0  0  0  0  0  0
    3.0955    3.3026   -0.0000 C   0  0  0  0  0  0  0  0  0  0  0  0
    4.9712    1.4959   -0.0000 C   0  0  0  0  0  0  0  0  0  0  0  0
    1.1968   -4.2922   -0.0000 C   0  0  0  0  0  0  0  0  0  0  0  0
    3.7053   -3.5673   -0.0000 C   0  0  0  0  0  0  0  0  0  0  0  0
    4.5454    2.9574   -0.0000 C   0  0  0  0  0  0  0  0  0  0  0  0
    2.6467   -4.6374   -0.0000 C   0  0  0  0  0  0  0  0  0  0  0  0
    3.0494   -6.0759   -0.0000 C   0  0  0  0  0  0  0  0  0  0  0  0
    1.9908   -7.1460   -0.0000 C   0  0  0  0  0  0  0  0  0  0  0  0
    4.4994   -6.4211   -0.0000 C   0  0  0  0  0  0  0  0  0  0  0  0
    2.3935   -8.5844   -0.0000 C   0  0  0  0  0  0  0  0  0  0  0  0
    0.5178   -6.7778   -0.0000 C   0  0  0  0  0  0  0  0  0  0  0  0
    4.9021   -7.8595   -0.0000 C   0  0  0  0  0  0  0  0  0  0  0  0
    3.8434   -8.9297   -0.0000 O   0  0  0  0  0  0  0  0  0  0  0  0
    1.3348   -9.6546   -0.0000 C   0  0  0  0  0  0  0  0  0  0  0  0
   -0.5408   -7.8480   -0.0000 C   0  0  0  0  0  0  0  0  0  0  0  0
    5.3049   -9.2979   -0.0000 C   0  0  0  0  0  0  0  0  0  0  0  0
    5.9378   -6.7663   -0.0000 C   0  0  0  0  0  0  0  0  0  0  0  0
   -0.1381   -9.2864   -0.0000 C   0  0  0  0  0  0  0  0  0  0  0  0
    6.7548   -9.6431   -0.0000 C   0  0  0  0  0  0  0  0  0  0  0  0
    7.3877   -7.1115   -0.0000 C   0  0  0  0  0  0  0  0  0  0  0  0
    7.7904   -8.5499   -0.0000 N   0  0  0  0  0  0  0  0  0  0  0  0
  1  2  2  0
  2  3  1  0
  2  4  1  0
  3  5  1  0
  3  6  1  0
  4  7  2  0
  4  8  1  0
  5  9  1  0
  6 10  1  0
  7 11  1  0
  8 12  2  0
  9 13  1  0
 11 14  2  0
 14 15  1  0
 15 16  1  0
 15 17  2  0
 16 18  2  0
 16 19  1  0
 17 20  1  0
 18 21  1  0
 18 22  1  0
 19 23  2  0
 20 24  1  0
 20 25  1  0
 22 26  2  0
 24 27  1  0
 25 28  1  0
 27 29  1  0
 10 13  1  0
 12 14  1  0
 20 21  1  0
 23 26  1  0
 28 29  1  0
M  END
>  <MolRegNo>  (1) 
562717

>  <m>  (1) 
=

>  <Value>  (1) 
4400

>  <Unit>  (1) 
nM

>  <Type>  (1) 
IC50

>  <pValue>  (1) 
5.36

>  <Ligand Efficiency>  (1) 
0

>  <Binding Efficiency>  (1) 
0

>  <Surface Efficiency>  (1) 
0

>  <Assay Index>  (1) 
428577

>  <Assay Category>  (1) 


>  <Assay Organism>  (1) 
Homo sapiens

>  <Target ID>  (1) 
11365

>  <Target Name>  (1) 
Cytochrome P450 2D6

>  <Target Organism>  (1) 
Homo sapiens

>  <Target Description>  (1) 
Target is a single protein chain

>  <Sequence Accession>  (1) 
P10635

>  <Reference>  (1) 
J Med Chem 52 (18), 5685-5702 (2009)

>  <Pubmed ID>  (1) 
19694468

>  <DOI>  (1) 
10.1021/jm900773n

$$$$
