4wnv_ligand_188
     RDKit          2D

 26 28  0  0  1  0  0  0  0  0999 V2000
    0.0000   -0.0000   -0.0000 O   0  0  0  0  0  0  0  0  0  0  0  0
   -0.0118   -1.4853   -0.0000 C   0  0  0  0  0  0  0  0  0  0  0  0
    1.2731   -2.2161   -0.0000 N   0  0  0  0  0  0  0  0  0  0  0  0
   -1.3202   -2.2161   -0.0000 C   0  0  0  0  0  0  0  0  0  0  0  0
    2.5580   -1.4617   -0.0000 C   0  0  0  0  0  0  0  0  0  0  0  0
    1.2613   -3.7014   -0.0000 C   0  0  0  0  0  0  0  0  0  0  0  0
   -2.6287   -1.4617   -0.0000 C   0  0  0  0  0  0  0  0  0  0  0  0
    2.5462    0.0472   -0.0000 C   0  0  0  0  0  0  0  0  0  0  0  0
    3.8547   -2.1926   -0.0000 C   0  0  0  0  0  0  0  0  0  0  0  0
   -2.6405    0.0472   -0.0000 C   0  0  0  0  0  0  0  0  0  0  0  0
   -3.9490   -2.1926   -0.0000 C   0  0  0  0  0  0  0  0  0  0  0  0
    3.8429    0.8016   -0.0000 C   0  0  0  0  0  0  0  0  0  0  0  0
    1.2377    0.7898   -0.0000 C   0  0  0  0  0  0  0  0  0  0  0  0
    5.1395   -1.4263   -0.0000 N   0  0  0  0  0  0  0  0  0  0  0  0
   -3.9607    0.8016   -0.0000 C   0  0  0  0  0  0  0  0  0  0  0  0
   -1.3556    0.8134   -0.0000 C   0  0  0  0  0  0  0  0  0  0  0  0
   -5.2574   -1.4381   -0.0000 C   0  0  0  0  0  0  0  0  0  0  0  0
    3.8311    2.3104   -0.0000 C   0  0  0  0  0  0  0  0  0  0  0  0
    1.2259    2.2986   -0.0000 C   0  0  0  0  0  0  0  0  0  0  0  0
    6.4834   -2.0157   -0.0000 C   0  0  0  0  0  0  0  0  0  0  0  0
    5.2692    0.0707   -0.0000 C   0  0  0  0  0  0  0  0  0  0  0  0
   -5.2692    0.0589   -0.0000 C   0  0  0  0  0  0  0  0  0  0  0  0
   -1.3792    2.3222   -0.0000 N   0  0  0  0  0  0  0  0  0  0  0  0
    2.5108    3.0766   -0.0000 C   0  0  0  0  0  0  0  0  0  0  0  0
    7.4735   -0.8959   -0.0000 C   0  0  0  0  0  0  0  0  0  0  0  0
    6.7191    0.4008   -0.0000 C   0  0  0  0  0  0  0  0  0  0  0  0
  1  2  2  0
  2  3  1  0
  2  4  1  0
  5  3  1  0
  3  6  1  0
  4  7  1  0
  5  8  1  0
  5  9  1  1
  7 10  2  0
  7 11  1  0
  8 12  2  0
  8 13  1  0
  9 14  1  0
 10 15  1  0
 10 16  1  0
 11 17  2  0
 12 18  1  0
 13 19  2  0
 14 20  1  0
 14 21  1  0
 15 22  2  0
 16 23  1  0
 18 24  2  0
 20 25  1  0
 21 26  1  0
 17 22  1  0
 19 24  1  0
 25 26  1  0
M  END
>  <MolRegNo>  (1) 
319421

>  <m>  (1) 
=

>  <Value>  (1) 
18

>  <Unit>  (1) 
nM

>  <Type>  (1) 
IC50

>  <pValue>  (1) 
7.75

>  <Ligand Efficiency>  (1) 
0

>  <Binding Efficiency>  (1) 
0

>  <Surface Efficiency>  (1) 
0

>  <Assay Index>  (1) 
238842

>  <Assay Category>  (1) 


>  <Assay Organism>  (1) 
Homo sapiens

>  <Target ID>  (1) 
11365

>  <Target Name>  (1) 
Cytochrome P450 2D6

>  <Target Organism>  (1) 
Homo sapiens

>  <Target Description>  (1) 
Target is a single protein chain

>  <Sequence Accession>  (1) 
P10635

>  <Reference>  (1) 
Bioorg Med Chem Lett 15 (10), 2647-2652 (2005)

>  <Pubmed ID>  (1) 
15863335

>  <DOI>  (1) 
10.1016/j.bmcl.2005.03.020

$$$$
