4wnv_ligand_181
     RDKit          2D

 36 39  0  0  1  0  0  0  0  0999 V2000
    0.0000   -0.0000   -0.0000 S   0  0  0  0  0  0  0  0  0  0  0  0
   -1.5265   -0.0000   -0.0000 O   0  0  0  0  0  0  0  0  0  0  0  0
    1.4901    0.0363   -0.0000 O   0  0  0  0  0  0  0  0  0  0  0  0
   -0.0363    1.5144   -0.0000 N   0  0  0  0  0  0  0  0  0  0  0  0
    0.0000   -1.5023   -0.0000 C   0  0  0  0  0  0  0  0  0  0  0  0
    1.2478    2.3019   -0.0000 C   0  0  0  0  0  0  0  0  0  0  0  0
   -1.2963   -2.2534   -0.0000 C   0  0  0  0  0  0  0  0  0  0  0  0
    2.5199    1.5507   -0.0000 C   0  0  0  0  0  0  0  0  0  0  0  0
   -2.6895   -1.6355   -0.0000 S   0  0  0  0  0  0  0  0  0  0  0  0
   -1.4538   -3.7314   -0.0000 C   0  0  0  0  0  0  0  0  0  0  0  0
    3.7920    2.2897   -0.0000 C   0  0  0  0  0  0  0  0  0  0  0  0
    2.4957    0.0242   -0.0000 C   0  0  0  0  0  0  0  0  0  0  0  0
   -3.6830   -2.7501   -0.0000 C   0  0  0  0  0  0  0  0  0  0  0  0
   -2.9318   -4.0585   -0.0000 C   0  0  0  0  0  0  0  0  0  0  0  0
    5.0762    1.5507   -0.0000 C   0  0  0  0  0  0  0  0  0  0  0  0
    3.7799   -0.7148   -0.0000 C   0  0  0  0  0  0  0  0  0  0  0  0
    5.0641    0.0485   -0.0000 C   0  0  0  0  0  0  0  0  0  0  0  0
    6.3604   -0.6906   -0.0000 C   0  0  0  0  0  0  0  0  0  0  0  0
    7.6325    0.0848   -0.0000 C   0  0  0  0  0  0  0  0  0  0  0  0
    7.6203    1.5992   -0.0000 O   0  0  0  0  0  0  0  0  0  0  0  0
    8.9409   -0.6542   -0.0000 N   0  0  0  0  0  0  0  0  0  0  0  0
   10.2251    0.1090   -0.0000 C   0  0  0  0  0  0  0  0  0  0  0  0
    8.9288   -2.1444   -0.0000 C   0  0  0  0  0  0  0  0  0  0  0  0
   10.2130    1.6234   -0.0000 C   0  0  0  0  0  0  0  0  0  0  0  0
   11.5093   -0.6300   -0.0000 C   0  0  0  0  0  0  0  0  0  0  0  0
    8.9045    2.3624   -0.0000 C   0  0  0  0  0  0  0  0  0  0  0  0
   11.4972    2.3745   -0.0000 C   0  0  0  0  0  0  0  0  0  0  0  0
   12.7935    0.1333   -0.0000 N   0  0  0  0  0  0  0  0  0  0  0  0
    8.8803    3.8768   -0.0000 C   0  0  0  0  0  0  0  0  0  0  0  0
   11.4850    3.8889   -0.0000 C   0  0  0  0  0  0  0  0  0  0  0  0
   14.1503   -0.4604   -0.0000 C   0  0  0  0  0  0  0  0  0  0  0  0
   12.9388    1.6476   -0.0000 C   0  0  0  0  0  0  0  0  0  0  0  0
   10.1766    4.6522   -0.0000 C   0  0  0  0  0  0  0  0  0  0  0  0
   15.1559    0.6663   -0.0000 C   0  0  0  0  0  0  0  0  0  0  0  0
   14.3805    1.9626   -0.0000 C   0  0  0  0  0  0  0  0  0  0  0  0
   16.6339    0.5331   -0.0000 O   0  0  0  0  0  0  0  0  0  0  0  0
  1  2  2  0
  1  3  2  0
  1  4  1  0
  1  5  1  0
  4  6  1  0
  5  7  1  0
  6  8  1  0
  7  9  1  0
  7 10  2  0
  8 11  2  0
  8 12  1  0
  9 13  1  0
 10 14  1  0
 11 15  1  0
 12 16  2  0
 15 17  2  0
 17 18  1  0
 18 19  1  0
 19 20  2  0
 19 21  1  0
 22 21  1  0
 21 23  1  0
 22 24  1  0
 22 25  1  1
 24 26  2  0
 24 27  1  0
 25 28  1  0
 26 29  1  0
 27 30  2  0
 28 31  1  0
 28 32  1  0
 29 33  2  0
 31 34  1  0
 32 35  1  0
 34 36  1  6
 13 14  2  0
 16 17  1  0
 30 33  1  0
 34 35  1  0
M  END
>  <MolRegNo>  (1) 
319960

>  <m>  (1) 
=

>  <Value>  (1) 
4776

>  <Unit>  (1) 
nM

>  <Type>  (1) 
IC50

>  <pValue>  (1) 
5.32

>  <Ligand Efficiency>  (1) 
0

>  <Binding Efficiency>  (1) 
0

>  <Surface Efficiency>  (1) 
0

>  <Assay Index>  (1) 
238842

>  <Assay Category>  (1) 


>  <Assay Organism>  (1) 
Homo sapiens

>  <Target ID>  (1) 
11365

>  <Target Name>  (1) 
Cytochrome P450 2D6

>  <Target Organism>  (1) 
Homo sapiens

>  <Target Description>  (1) 
Target is a single protein chain

>  <Sequence Accession>  (1) 
P10635

>  <Reference>  (1) 
Bioorg Med Chem Lett 15 (10), 2647-2652 (2005)

>  <Pubmed ID>  (1) 
15863335

>  <DOI>  (1) 
10.1016/j.bmcl.2005.03.020

$$$$
