4wnv_ligand_170
     RDKit          2D

 39 43  0  0  0  0  0  0  0  0999 V2000
    0.0000   -0.0000   -0.0000 O   0  0  0  0  0  0  0  0  0  0  0  0
    0.9084   -1.1417   -0.0000 C   0  0  0  0  0  0  0  0  0  0  0  0
    2.3815   -0.8961   -0.0000 O   0  0  0  0  0  0  0  0  0  0  0  0
    0.3560   -2.4920   -0.0000 C   0  0  0  0  0  0  0  0  0  0  0  0
    3.4250   -1.9887   -0.0000 C   0  0  0  0  0  0  0  0  0  0  0  0
   -1.1294   -2.6148   -0.0000 O   0  0  0  0  0  0  0  0  0  0  0  0
    1.2521   -3.9283   -0.0000 C   0  0  0  0  0  0  0  0  0  0  0  0
    2.8726   -3.4373   -0.0000 C   0  0  0  0  0  0  0  0  0  0  0  0
    4.9104   -1.5959   -0.0000 C   0  0  0  0  0  0  0  0  0  0  0  0
   -1.9887   -1.3872   -0.0000 C   0  0  0  0  0  0  0  0  0  0  0  0
    1.0680   -5.0945   -0.0000 C   0  0  0  0  0  0  0  0  0  0  0  0
    4.0511   -4.4316   -0.0000 C   0  0  0  0  0  0  0  0  0  0  0  0
    1.7800   -2.4920   -0.0000 C   0  0  0  0  0  0  0  0  0  0  0  0
    5.9784   -2.6148   -0.0000 C   0  0  0  0  0  0  0  0  0  0  0  0
   -1.3749   -0.0368   -0.0000 O   0  0  0  0  0  0  0  0  0  0  0  0
   -3.4741   -1.5099   -0.0000 C   0  0  0  0  0  0  0  0  0  0  0  0
    0.4174   -3.5232   -0.0000 O   0  0  0  0  0  0  0  0  0  0  0  0
   -0.1841   -5.8924   -0.0000 C   0  0  0  0  0  0  0  0  0  0  0  0
    2.1483   -6.2239   -0.0000 C   0  0  0  0  0  0  0  0  0  0  0  0
    5.5487   -4.0142   -0.0000 C   0  0  0  0  0  0  0  0  0  0  0  0
    3.5968   -5.8556   -0.0000 C   0  0  0  0  0  0  0  0  0  0  0  0
    7.4024   -2.2588   -0.0000 C   0  0  0  0  0  0  0  0  0  0  0  0
   -4.3334   -0.2823   -0.0000 C   0  0  0  0  0  0  0  0  0  0  0  0
   -1.5099   -5.2050   -0.0000 O   0  0  0  0  0  0  0  0  0  0  0  0
   -0.1228   -7.3533   -0.0000 O   0  0  0  0  0  0  0  0  0  0  0  0
    1.7186   -7.6356   -0.0000 O   0  0  0  0  0  0  0  0  0  0  0  0
    6.5553   -5.0700   -0.0000 C   0  0  0  0  0  0  0  0  0  0  0  0
    5.1313   -5.4260   -0.0000 C   0  0  0  0  0  0  0  0  0  0  0  0
    4.6035   -6.9236   -0.0000 O   0  0  0  0  0  0  0  0  0  0  0  0
    8.4090   -3.3145   -0.0000 C   0  0  0  0  0  0  0  0  0  0  0  0
    7.8075   -0.8225   -0.0000 C   0  0  0  0  0  0  0  0  0  0  0  0
   -5.8188   -0.4051   -0.0000 C   0  0  0  0  0  0  0  0  0  0  0  0
   -3.7196    1.0680   -0.0000 C   0  0  0  0  0  0  0  0  0  0  0  0
   -1.3749   -8.1512   -0.0000 C   0  0  0  0  0  0  0  0  0  0  0  0
    7.9793   -4.7139   -0.0000 C   0  0  0  0  0  0  0  0  0  0  0  0
    9.8330   -2.9585   -0.0000 O   0  0  0  0  0  0  0  0  0  0  0  0
   -6.6781    0.8225   -0.0000 C   0  0  0  0  0  0  0  0  0  0  0  0
   -6.4571   -1.7309   -0.0000 C   0  0  0  0  0  0  0  0  0  0  0  0
    8.9860   -5.7697   -0.0000 O   0  0  0  0  0  0  0  0  0  0  0  0
  1  2  2  0
  2  3  1  0
  2  4  1  0
  5  3  1  0
  4  6  1  1
  7  4  1  6
  5  8  1  0
  5  9  1  6
  6 10  1  0
  7 11  1  0
  8 12  1  0
  8 13  1  1
 14  9  1  1
 10 15  2  0
 10 16  1  0
 11 17  1  0
 11 18  1  6
 11 19  1  0
 12 20  1  0
 12 21  1  1
 14 22  1  0
 16 23  2  0
 18 24  2  0
 18 25  1  0
 19 26  1  6
 20 27  1  0
 20 28  1  1
 21 29  1  1
 22 30  2  0
 22 31  1  0
 23 32  1  0
 23 33  1  0
 25 34  1  0
 27 35  1  0
 30 36  1  0
 32 37  1  0
 32 38  1  0
 35 39  2  0
  7  8  1  0
 13 17  1  0
 14 20  1  0
 19 21  1  0
 30 35  1  0
M  END
>  <MolRegNo>  (1) 
445098

>  <m>  (1) 
=

>  <Value>  (1) 
514000

>  <Unit>  (1) 
nM

>  <Type>  (1) 
IC50

>  <pValue>  (1) 
0

>  <Ligand Efficiency>  (1) 
0

>  <Binding Efficiency>  (1) 
0

>  <Surface Efficiency>  (1) 
0

>  <Assay Index>  (1) 
237541

>  <Assay Category>  (1) 


>  <Assay Organism>  (1) 


>  <Target ID>  (1) 
11365

>  <Target Name>  (1) 
Cytochrome P450 2D6

>  <Target Organism>  (1) 
Homo sapiens

>  <Target Description>  (1) 
Target is a single protein chain

>  <Sequence Accession>  (1) 
P10635

>  <Reference>  (1) 
J Med Chem 47 (22), 5340-5346 (2004)

>  <Pubmed ID>  (1) 
15481972

>  <DOI>  (1) 
10.1021/jm049934e

$$$$
