4wnv_ligand_349
     RDKit          2D

 32 34  0  0  0  0  0  0  0  0999 V2000
    0.0000   -0.0000   -0.0000 F   0  0  0  0  0  0  0  0  0  0  0  0
    1.2922   -0.7418   -0.0000 C   0  0  0  0  0  0  0  0  0  0  0  0
    2.5845    0.0239   -0.0000 C   0  0  0  0  0  0  0  0  0  0  0  0
    1.2803   -2.2495   -0.0000 C   0  0  0  0  0  0  0  0  0  0  0  0
    2.5725    1.5435   -0.0000 F   0  0  0  0  0  0  0  0  0  0  0  0
    3.8767   -0.7179   -0.0000 C   0  0  0  0  0  0  0  0  0  0  0  0
    2.5725   -2.9913   -0.0000 C   0  0  0  0  0  0  0  0  0  0  0  0
    3.8647   -2.2255   -0.0000 C   0  0  0  0  0  0  0  0  0  0  0  0
    2.5605   -4.4869   -0.0000 F   0  0  0  0  0  0  0  0  0  0  0  0
    5.1570   -2.9674   -0.0000 C   0  0  0  0  0  0  0  0  0  0  0  0
    6.4492   -2.2016   -0.0000 C   0  0  0  0  0  0  0  0  0  0  0  0
    5.1450   -4.4630   -0.0000 C   0  0  0  0  0  0  0  0  0  0  0  0
    6.4373   -0.6820   -0.0000 N   0  0  0  0  0  0  0  0  0  0  0  0
    7.7415   -2.9554   -0.0000 C   0  0  0  0  0  0  0  0  0  0  0  0
    6.4373   -5.2048   -0.0000 C   0  0  0  0  0  0  0  0  0  0  0  0
    7.7295   -4.4510   -0.0000 N   0  0  0  0  0  0  0  0  0  0  0  0
    9.0217   -5.1929   -0.0000 C   0  0  0  0  0  0  0  0  0  0  0  0
   10.3140   -4.4271   -0.0000 N   0  0  0  0  0  0  0  0  0  0  0  0
    9.0098   -6.6885   -0.0000 C   0  0  0  0  0  0  0  0  0  0  0  0
   11.6062   -5.1690   -0.0000 C   0  0  0  0  0  0  0  0  0  0  0  0
   10.3020   -7.4304   -0.0000 C   0  0  0  0  0  0  0  0  0  0  0  0
   13.0301   -4.6784   -0.0000 N   0  0  0  0  0  0  0  0  0  0  0  0
   11.6062   -6.6646   -0.0000 N   0  0  0  0  0  0  0  0  0  0  0  0
   13.9155   -5.8869   -0.0000 N   0  0  0  0  0  0  0  0  0  0  0  0
   13.0301   -7.1073   -0.0000 C   0  0  0  0  0  0  0  0  0  0  0  0
   10.4336    0.3829   -0.0000 F   0  0  0  0  0  0  0  0  0  0  0  0
   11.7378    1.1367   -0.0000 C   0  0  0  0  0  0  0  0  0  0  0  0
   12.4797   -0.1555   -0.0000 F   0  0  0  0  0  0  0  0  0  0  0  0
   10.9721    2.4529   -0.0000 F   0  0  0  0  0  0  0  0  0  0  0  0
   13.0301    1.9025   -0.0000 C   0  0  0  0  0  0  0  0  0  0  0  0
   13.0181    3.4220   -0.0000 O   0  0  0  0  0  0  0  0  0  0  0  0
   14.3223    1.1606   -0.0000 O   0  0  0  0  0  0  0  0  0  0  0  0
  1  2  1  0
  2  3  2  0
  2  4  1  0
  3  5  1  0
  3  6  1  0
  4  7  2  0
  6  8  2  0
  7  9  1  0
 10  8  1  6
 10 11  1  0
 10 12  1  0
 11 13  1  1
 11 14  1  0
 12 15  1  0
 14 16  1  0
 16 17  1  0
 17 18  2  0
 17 19  1  0
 18 20  1  0
 19 21  2  0
 20 22  2  0
 20 23  1  0
 22 24  1  0
 23 25  1  0
 26 27  1  0
 27 28  1  0
 27 29  1  0
 27 30  1  0
 30 31  2  0
 30 32  1  0
  7  8  1  0
 15 16  1  0
 21 23  1  0
 24 25  2  0
M  END
>  <MolRegNo>  (1) 
385311

>  <m>  (1) 
=

>  <Value>  (1) 
20600

>  <Unit>  (1) 
nM

>  <Type>  (1) 
IC50

>  <pValue>  (1) 
4.69

>  <Ligand Efficiency>  (1) 
0

>  <Binding Efficiency>  (1) 
0

>  <Surface Efficiency>  (1) 
0

>  <Assay Index>  (1) 
288258

>  <Assay Category>  (1) 


>  <Assay Organism>  (1) 


>  <Target ID>  (1) 
11365

>  <Target Name>  (1) 
Cytochrome P450 2D6

>  <Target Organism>  (1) 
Homo sapiens

>  <Target Description>  (1) 
Target is a single protein chain

>  <Sequence Accession>  (1) 
P10635

>  <Reference>  (1) 
Bioorg Med Chem Lett 17 (16), 4579-4583 (2007)

>  <Pubmed ID>  (1) 
17562364

>  <DOI>  (1) 
10.1016/j.bmcl.2007.05.087

$$$$
