4wnv_ligand_607
     RDKit          2D

 19 20  0  0  0  0  0  0  0  0999 V2000
    0.0000   -0.0000   -0.0000 O   0  0  0  0  0  0  0  0  0  0  0  0
   -0.0119   -1.4872   -0.0000 C   0  0  0  0  0  0  0  0  0  0  0  0
   -1.3206   -2.2248   -0.0000 C   0  0  0  0  0  0  0  0  0  0  0  0
    1.2730   -2.2248   -0.0000 C   0  0  0  0  0  0  0  0  0  0  0  0
   -2.6293   -1.4634   -0.0000 C   0  0  0  0  0  0  0  0  0  0  0  0
   -1.3325   -3.7239   -0.0000 C   0  0  0  0  0  0  0  0  0  0  0  0
    1.2611   -3.7120   -0.0000 C   0  0  0  0  0  0  0  0  0  0  0  0
   -3.9381   -2.2010   -0.0000 C   0  0  0  0  0  0  0  0  0  0  0  0
   -2.6531   -4.4615   -0.0000 C   0  0  0  0  0  0  0  0  0  0  0  0
    1.2373   -5.1992   -0.0000 C   0  0  0  0  0  0  0  0  0  0  0  0
    2.7483   -3.7001   -0.0000 C   0  0  0  0  0  0  0  0  0  0  0  0
   -0.2498   -3.7001   -0.0000 C   0  0  0  0  0  0  0  0  0  0  0  0
   -3.9500   -3.7001   -0.0000 C   0  0  0  0  0  0  0  0  0  0  0  0
   -5.2468   -1.4396   -0.0000 C   0  0  0  0  0  0  0  0  0  0  0  0
   -6.5555   -2.1772   -0.0000 C   0  0  0  0  0  0  0  0  0  0  0  0
   -7.9356   -1.5467   -0.0000 N   0  0  0  0  0  0  0  0  0  0  0  0
   -6.7102   -3.6525   -0.0000 C   0  0  0  0  0  0  0  0  0  0  0  0
   -8.9469   -2.6531   -0.0000 C   0  0  0  0  0  0  0  0  0  0  0  0
   -8.1854   -3.9500   -0.0000 N   0  0  0  0  0  0  0  0  0  0  0  0
  1  2  2  0
  2  3  1  0
  2  4  1  0
  3  5  2  0
  3  6  1  0
  4  7  1  0
  5  8  1  0
  6  9  2  0
  7 10  1  0
  7 11  1  0
  7 12  1  0
  8 13  2  0
  8 14  1  0
 14 15  1  0
 15 16  1  0
 15 17  2  0
 16 18  2  0
 17 19  1  0
  9 13  1  0
 18 19  1  0
M  END
>  <MolRegNo>  (1) 
486166

>  <m>  (1) 
=

>  <Value>  (1) 
1926

>  <Unit>  (1) 
nM

>  <Type>  (1) 
IC50

>  <pValue>  (1) 
5.71

>  <Ligand Efficiency>  (1) 
0

>  <Binding Efficiency>  (1) 
0

>  <Surface Efficiency>  (1) 
0

>  <Assay Index>  (1) 
405421

>  <Assay Category>  (1) 


>  <Assay Organism>  (1) 
Homo sapiens

>  <Target ID>  (1) 
11365

>  <Target Name>  (1) 
Cytochrome P450 2D6

>  <Target Organism>  (1) 
Homo sapiens

>  <Target Description>  (1) 
Target is a single protein chain

>  <Sequence Accession>  (1) 
P10635

>  <Reference>  (1) 
J Med Chem 51 (10), 2944-2953 (2008)

>  <Pubmed ID>  (1) 
18433114

>  <DOI>  (1) 
10.1021/jm7014149

$$$$
