4wnv_ligand_1065
     RDKit          2D

 35 39  0  0  0  0  0  0  0  0999 V2000
    0.0000   -0.0000   -0.0000 O   0  0  0  0  0  0  0  0  0  0  0  0
    0.2861   -1.4664   -0.0000 C   0  0  0  0  0  0  0  0  0  0  0  0
    1.6453   -2.0745   -0.0000 N   0  0  0  0  0  0  0  0  0  0  0  0
   -0.7392   -2.5633   -0.0000 N   0  0  0  0  0  0  0  0  0  0  0  0
    1.4545   -3.5528   -0.0000 C   0  0  0  0  0  0  0  0  0  0  0  0
    2.9448   -1.3234   -0.0000 C   0  0  0  0  0  0  0  0  0  0  0  0
    0.0000   -3.8628   -0.0000 C   0  0  0  0  0  0  0  0  0  0  0  0
   -2.2533   -2.3844   -0.0000 C   0  0  0  0  0  0  0  0  0  0  0  0
    2.4441   -4.6497   -0.0000 C   0  0  0  0  0  0  0  0  0  0  0  0
    2.9448    0.1908   -0.0000 C   0  0  0  0  0  0  0  0  0  0  0  0
    4.2324   -2.0745   -0.0000 C   0  0  0  0  0  0  0  0  0  0  0  0
   -0.4769   -5.2696   -0.0000 C   0  0  0  0  0  0  0  0  0  0  0  0
   -2.8733   -0.9895   -0.0000 C   0  0  0  0  0  0  0  0  0  0  0  0
    1.9672   -6.0565   -0.0000 C   0  0  0  0  0  0  0  0  0  0  0  0
    4.2324    0.9419   -0.0000 C   0  0  0  0  0  0  0  0  0  0  0  0
    5.5319   -1.3234   -0.0000 C   0  0  0  0  0  0  0  0  0  0  0  0
    0.5127   -6.3784   -0.0000 C   0  0  0  0  0  0  0  0  0  0  0  0
   -4.3874   -0.8107   -0.0000 C   0  0  0  0  0  0  0  0  0  0  0  0
   -1.9910    0.2384   -0.0000 C   0  0  0  0  0  0  0  0  0  0  0  0
    5.5319    0.1908   -0.0000 N   0  0  0  0  0  0  0  0  0  0  0  0
    6.8314    0.9538   -0.0000 C   0  0  0  0  0  0  0  0  0  0  0  0
    6.8314    2.4679   -0.0000 O   0  0  0  0  0  0  0  0  0  0  0  0
    8.1190    0.2027   -0.0000 C   0  0  0  0  0  0  0  0  0  0  0  0
    9.4185    0.9657   -0.0000 C   0  0  0  0  0  0  0  0  0  0  0  0
    8.1071   -1.2995   -0.0000 C   0  0  0  0  0  0  0  0  0  0  0  0
   10.7061    0.2265   -0.0000 C   0  0  0  0  0  0  0  0  0  0  0  0
    9.3947   -2.0506   -0.0000 C   0  0  0  0  0  0  0  0  0  0  0  0
   10.6823   -1.2757   -0.0000 N   0  0  0  0  0  0  0  0  0  0  0  0
   11.9699   -2.0149   -0.0000 C   0  0  0  0  0  0  0  0  0  0  0  0
   13.2575   -1.2518   -0.0000 C   0  0  0  0  0  0  0  0  0  0  0  0
   13.2456    0.2742   -0.0000 C   0  0  0  0  0  0  0  0  0  0  0  0
   14.5451   -1.9910   -0.0000 C   0  0  0  0  0  0  0  0  0  0  0  0
   14.5332    1.0372   -0.0000 C   0  0  0  0  0  0  0  0  0  0  0  0
   15.8446   -1.2280   -0.0000 C   0  0  0  0  0  0  0  0  0  0  0  0
   15.8327    0.2981   -0.0000 N   0  0  0  0  0  0  0  0  0  0  0  0
  1  2  2  0
  2  3  1  0
  2  4  1  0
  3  5  1  0
  3  6  1  0
  4  7  1  0
  4  8  1  0
  5  9  2  0
  6 10  1  0
  6 11  1  0
  7 12  2  0
  8 13  1  0
  9 14  1  0
 10 15  1  0
 11 16  1  0
 12 17  1  0
 13 18  1  0
 13 19  1  0
 15 20  1  0
 20 21  1  0
 21 22  2  0
 21 23  1  0
 23 24  1  0
 23 25  1  0
 24 26  1  0
 25 27  1  0
 26 28  1  0
 28 29  1  0
 29 30  1  0
 30 31  2  0
 30 32  1  0
 31 33  1  0
 32 34  2  0
 33 35  2  0
  5  7  1  0
 14 17  2  0
 16 20  1  0
 27 28  1  0
 34 35  1  0
M  END
>  <MolRegNo>  (1) 
689088

>  <m>  (1) 
=

>  <Value>  (1) 
1900

>  <Unit>  (1) 
nM

>  <Type>  (1) 
IC50

>  <pValue>  (1) 
5.72

>  <Ligand Efficiency>  (1) 
0

>  <Binding Efficiency>  (1) 
0

>  <Surface Efficiency>  (1) 
0

>  <Assay Index>  (1) 
497181

>  <Assay Category>  (1) 


>  <Assay Organism>  (1) 
Homo sapiens

>  <Target ID>  (1) 
11365

>  <Target Name>  (1) 
Cytochrome P450 2D6

>  <Target Organism>  (1) 
Homo sapiens

>  <Target Description>  (1) 
Target is a single protein chain

>  <Sequence Accession>  (1) 
P10635

>  <Reference>  (1) 
Bioorg Med Chem Lett 20 (17), 5004-5008 (2010)

>  <Pubmed ID>  (1) 
20685118

>  <DOI>  (1) 
10.1016/j.bmcl.2010.07.052

$$$$
