4wnv_ligand_857
     RDKit          2D

 32 34  0  0  0  0  0  0  0  0999 V2000
    0.0000   -0.0000   -0.0000 F   0  0  0  0  0  0  0  0  0  0  0  0
   -1.1006    0.6431   -0.0000 C   0  0  0  0  0  0  0  0  0  0  0  0
   -1.1130    2.2260   -0.0000 C   0  0  0  0  0  0  0  0  0  0  0  0
   -2.4733   -0.1237   -0.0000 C   0  0  0  0  0  0  0  0  0  0  0  0
   -0.0371    2.8690   -0.0000 F   0  0  0  0  0  0  0  0  0  0  0  0
   -2.4857    3.0174   -0.0000 C   0  0  0  0  0  0  0  0  0  0  0  0
   -3.8460    0.6678   -0.0000 C   0  0  0  0  0  0  0  0  0  0  0  0
   -3.8583    2.2507   -0.0000 C   0  0  0  0  0  0  0  0  0  0  0  0
   -4.9466    0.0495   -0.0000 F   0  0  0  0  0  0  0  0  0  0  0  0
   -5.2310    3.0545   -0.0000 C   0  0  0  0  0  0  0  0  0  0  0  0
   -5.2434    4.6374   -0.0000 C   0  0  0  0  0  0  0  0  0  0  0  0
   -4.1675    5.2805   -0.0000 N   0  0  0  0  0  0  0  0  0  0  0  0
   -6.6161    5.4413   -0.0000 C   0  0  0  0  0  0  0  0  0  0  0  0
   -6.6284    7.0242   -0.0000 C   0  0  0  0  0  0  0  0  0  0  0  0
   -5.5526    7.6672   -0.0000 O   0  0  0  0  0  0  0  0  0  0  0  0
   -8.0011    7.8280   -0.0000 N   0  0  0  0  0  0  0  0  0  0  0  0
   -8.1619    9.3862   -0.0000 C   0  0  0  0  0  0  0  0  0  0  0  0
   -9.4233    7.1849   -0.0000 C   0  0  0  0  0  0  0  0  0  0  0  0
   -9.7077    9.7201   -0.0000 C   0  0  0  0  0  0  0  0  0  0  0  0
   -6.9994   10.4373   -0.0000 C   0  0  0  0  0  0  0  0  0  0  0  0
  -10.4868    8.3598   -0.0000 C   0  0  0  0  0  0  0  0  0  0  0  0
   -7.3333   11.9831   -0.0000 N   0  0  0  0  0  0  0  0  0  0  0  0
   -6.1709   13.0343   -0.0000 C   0  0  0  0  0  0  0  0  0  0  0  0
   -4.6993   12.5520   -0.0000 C   0  0  0  0  0  0  0  0  0  0  0  0
   -6.4924   14.5801   -0.0000 C   0  0  0  0  0  0  0  0  0  0  0  0
   -3.5368   13.6031   -0.0000 N   0  0  0  0  0  0  0  0  0  0  0  0
   -5.3300   15.6313   -0.0000 C   0  0  0  0  0  0  0  0  0  0  0  0
   -3.8583   15.1490   -0.0000 C   0  0  0  0  0  0  0  0  0  0  0  0
   -2.6959   16.2001   -0.0000 C   0  0  0  0  0  0  0  0  0  0  0  0
   -2.9556   17.4368   -0.0000 F   0  0  0  0  0  0  0  0  0  0  0  0
   -1.5211   15.8167   -0.0000 F   0  0  0  0  0  0  0  0  0  0  0  0
   -1.7684   17.0410   -0.0000 F   0  0  0  0  0  0  0  0  0  0  0  0
  1  2  1  0
  2  3  2  0
  2  4  1  0
  3  5  1  0
  3  6  1  0
  4  7  2  0
  6  8  2  0
  7  9  1  0
  8 10  1  0
 10 11  1  0
 11 12  1  1
 11 13  1  0
 13 14  1  0
 14 15  2  0
 14 16  1  0
 16 17  1  0
 16 18  1  0
 17 19  1  0
 17 20  1  6
 18 21  1  0
 20 22  1  0
 22 23  1  0
 23 24  2  0
 23 25  1  0
 24 26  1  0
 25 27  2  0
 26 28  2  0
 28 29  1  0
 29 30  1  0
 29 31  1  0
 29 32  1  0
  7  8  1  0
 19 21  1  0
 27 28  1  0
M  END
>  <MolRegNo>  (1) 
555431

>  <m>  (1) 
=

>  <Value>  (1) 
5000

>  <Unit>  (1) 
nM

>  <Type>  (1) 
IC50

>  <pValue>  (1) 
5.3

>  <Ligand Efficiency>  (1) 
0

>  <Binding Efficiency>  (1) 
0

>  <Surface Efficiency>  (1) 
0

>  <Assay Index>  (1) 
428036

>  <Assay Category>  (1) 


>  <Assay Organism>  (1) 
Homo sapiens

>  <Target ID>  (1) 
11365

>  <Target Name>  (1) 
Cytochrome P450 2D6

>  <Target Organism>  (1) 
Homo sapiens

>  <Target Description>  (1) 
Target is a single protein chain

>  <Sequence Accession>  (1) 
P10635

>  <Reference>  (1) 
Bioorg Med Chem Lett 19 (16), 4818-4823 (2009)

>  <Pubmed ID>  (1) 
19576767

>  <DOI>  (1) 
10.1016/j.bmcl.2009.06.036

$$$$
