4wnv_ligand_368
     RDKit          2D

 37 40  0  0  1  0  0  0  0  0999 V2000
    0.0000   -0.0000   -0.0000 F   0  0  0  0  0  0  0  0  0  0  0  0
   -0.0118    1.5036   -0.0000 C   0  0  0  0  0  0  0  0  0  0  0  0
    1.2668    2.2732   -0.0000 C   0  0  0  0  0  0  0  0  0  0  0  0
   -1.3142    2.2732   -0.0000 C   0  0  0  0  0  0  0  0  0  0  0  0
    1.2550    3.7886   -0.0000 C   0  0  0  0  0  0  0  0  0  0  0  0
   -1.3260    3.7767   -0.0000 C   0  0  0  0  0  0  0  0  0  0  0  0
    2.5455    4.5463   -0.0000 F   0  0  0  0  0  0  0  0  0  0  0  0
   -0.0474    4.5345   -0.0000 C   0  0  0  0  0  0  0  0  0  0  0  0
   -2.6283    4.5226   -0.0000 C   0  0  0  0  0  0  0  0  0  0  0  0
   -3.9307    3.7886   -0.0000 O   0  0  0  0  0  0  0  0  0  0  0  0
   -2.6402    6.0262   -0.0000 C   0  0  0  0  0  0  0  0  0  0  0  0
   -2.6520    3.0427   -0.0000 C   0  0  0  0  0  0  0  0  0  0  0  0
   -5.2330    4.5345   -0.0000 C   0  0  0  0  0  0  0  0  0  0  0  0
   -1.3615    6.7839   -0.0000 O   0  0  0  0  0  0  0  0  0  0  0  0
   -3.9543    6.7839   -0.0000 N   0  0  0  0  0  0  0  0  0  0  0  0
   -5.2448    6.0381   -0.0000 C   0  0  0  0  0  0  0  0  0  0  0  0
   -6.5353    3.7886   -0.0000 C   0  0  0  0  0  0  0  0  0  0  0  0
   -3.9662    8.2875   -0.0000 C   0  0  0  0  0  0  0  0  0  0  0  0
   -6.5471    6.7958   -0.0000 C   0  0  0  0  0  0  0  0  0  0  0  0
   -7.8376    4.5463   -0.0000 C   0  0  0  0  0  0  0  0  0  0  0  0
   -2.6875    9.0571   -0.0000 C   0  0  0  0  0  0  0  0  0  0  0  0
   -7.8376    6.0499   -0.0000 C   0  0  0  0  0  0  0  0  0  0  0  0
   -2.6994   10.5607   -0.0000 C   0  0  0  0  0  0  0  0  0  0  0  0
   -9.1400    6.8076   -0.0000 C   0  0  0  0  0  0  0  0  0  0  0  0
   -1.4207   11.3184   -0.0000 C   0  0  0  0  0  0  0  0  0  0  0  0
   -9.1518    8.3230   -0.0000 C   0  0  0  0  0  0  0  0  0  0  0  0
  -10.4541    6.0617   -0.0000 C   0  0  0  0  0  0  0  0  0  0  0  0
   -0.1539   12.0879   -0.0000 F   0  0  0  0  0  0  0  0  0  0  0  0
   -0.6748   10.0397   -0.0000 F   0  0  0  0  0  0  0  0  0  0  0  0
   -2.1903   12.6207   -0.0000 F   0  0  0  0  0  0  0  0  0  0  0  0
  -10.4660    9.0808   -0.0000 N   0  0  0  0  0  0  0  0  0  0  0  0
   -7.8732    9.0926   -0.0000 N   0  0  0  0  0  0  0  0  0  0  0  0
  -11.7564    6.8313   -0.0000 N   0  0  0  0  0  0  0  0  0  0  0  0
  -10.4660    4.5818   -0.0000 C   0  0  0  0  0  0  0  0  0  0  0  0
  -11.7683    8.3349   -0.0000 C   0  0  0  0  0  0  0  0  0  0  0  0
  -11.7683    3.8478   -0.0000 C   0  0  0  0  0  0  0  0  0  0  0  0
  -13.0706    9.0926   -0.0000 N   0  0  0  0  0  0  0  0  0  0  0  0
  1  2  1  0
  2  3  2  0
  2  4  1  0
  3  5  1  0
  4  6  2  0
  5  7  1  0
  5  8  2  0
  6  9  1  0
  9 10  1  0
  9 11  1  0
  9 12  1  1
 10 13  1  0
 11 14  2  0
 11 15  1  0
 13 16  2  0
 13 17  1  0
 15 18  1  0
 16 19  1  0
 17 20  2  0
 18 21  1  0
 19 22  2  0
 21 23  1  0
 22 24  1  0
 23 25  1  0
 24 26  2  0
 24 27  1  0
 25 28  1  0
 25 29  1  0
 25 30  1  0
 26 31  1  0
 26 32  1  0
 27 33  2  0
 27 34  1  0
 31 35  2  0
 34 36  1  0
 35 37  1  0
  6  8  1  0
 15 16  1  0
 20 22  1  0
 33 35  1  0
M  END
>  <MolRegNo>  (1) 
405863

>  <m>  (1) 
=

>  <Value>  (1) 
430

>  <Unit>  (1) 
nM

>  <Type>  (1) 
IC50

>  <pValue>  (1) 
6.37

>  <Ligand Efficiency>  (1) 
0

>  <Binding Efficiency>  (1) 
0

>  <Surface Efficiency>  (1) 
0

>  <Assay Index>  (1) 
297171

>  <Assay Category>  (1) 


>  <Assay Organism>  (1) 


>  <Target ID>  (1) 
11365

>  <Target Name>  (1) 
Cytochrome P450 2D6

>  <Target Organism>  (1) 
Homo sapiens

>  <Target Description>  (1) 
Target is a single protein chain

>  <Sequence Accession>  (1) 
P10635

>  <Reference>  (1) 
Bioorg Med Chem 15 (17), 5912-5949 (2007)

>  <Pubmed ID>  (1) 
17574423

>  <DOI>  (1) 
10.1016/j.bmc.2007.05.069

$$$$
