4wnv_ligand_347
     RDKit          2D

 35 37  0  0  0  0  0  0  0  0999 V2000
    0.0000   -0.0000   -0.0000 F   0  0  0  0  0  0  0  0  0  0  0  0
    1.2901   -0.7443   -0.0000 C   0  0  0  0  0  0  0  0  0  0  0  0
    2.5801    0.0248   -0.0000 C   0  0  0  0  0  0  0  0  0  0  0  0
    1.2777   -2.2452   -0.0000 C   0  0  0  0  0  0  0  0  0  0  0  0
    2.5677    1.5506   -0.0000 F   0  0  0  0  0  0  0  0  0  0  0  0
    3.8702   -0.7071   -0.0000 C   0  0  0  0  0  0  0  0  0  0  0  0
    2.5677   -2.9895   -0.0000 C   0  0  0  0  0  0  0  0  0  0  0  0
    3.8578   -2.2080   -0.0000 C   0  0  0  0  0  0  0  0  0  0  0  0
    2.5553   -4.4904   -0.0000 F   0  0  0  0  0  0  0  0  0  0  0  0
    5.1479   -2.9523   -0.0000 C   0  0  0  0  0  0  0  0  0  0  0  0
    6.4380   -2.1832   -0.0000 C   0  0  0  0  0  0  0  0  0  0  0  0
    5.1355   -4.4532   -0.0000 C   0  0  0  0  0  0  0  0  0  0  0  0
    6.4256   -0.6574   -0.0000 N   0  0  0  0  0  0  0  0  0  0  0  0
    7.7280   -2.9275   -0.0000 C   0  0  0  0  0  0  0  0  0  0  0  0
    6.4256   -5.1975   -0.0000 C   0  0  0  0  0  0  0  0  0  0  0  0
    7.7156   -4.4284   -0.0000 N   0  0  0  0  0  0  0  0  0  0  0  0
    9.0057   -5.1603   -0.0000 C   0  0  0  0  0  0  0  0  0  0  0  0
   10.2958   -4.4036   -0.0000 N   0  0  0  0  0  0  0  0  0  0  0  0
    8.9933   -6.6612   -0.0000 C   0  0  0  0  0  0  0  0  0  0  0  0
   11.5858   -5.1355   -0.0000 N   0  0  0  0  0  0  0  0  0  0  0  0
   10.2834   -7.4055   -0.0000 C   0  0  0  0  0  0  0  0  0  0  0  0
   12.8759   -4.3664   -0.0000 C   0  0  0  0  0  0  0  0  0  0  0  0
   11.5734   -6.6364   -0.0000 C   0  0  0  0  0  0  0  0  0  0  0  0
   12.8635   -2.8406   -0.0000 O   0  0  0  0  0  0  0  0  0  0  0  0
   14.1784   -5.1107   -0.0000 C   0  0  0  0  0  0  0  0  0  0  0  0
   12.8635   -7.3807   -0.0000 N   0  0  0  0  0  0  0  0  0  0  0  0
   14.1660   -6.6116   -0.0000 C   0  0  0  0  0  0  0  0  0  0  0  0
   15.4561   -7.3559   -0.0000 C   0  0  0  0  0  0  0  0  0  0  0  0
   12.5038   -0.0000   -0.0000 F   0  0  0  0  0  0  0  0  0  0  0  0
   13.8063    0.7567   -0.0000 C   0  0  0  0  0  0  0  0  0  0  0  0
   14.5381   -0.5334   -0.0000 F   0  0  0  0  0  0  0  0  0  0  0  0
   13.0496    2.0716   -0.0000 F   0  0  0  0  0  0  0  0  0  0  0  0
   15.0963    1.5258   -0.0000 C   0  0  0  0  0  0  0  0  0  0  0  0
   15.0839    3.0515   -0.0000 O   0  0  0  0  0  0  0  0  0  0  0  0
   16.3864    0.7815   -0.0000 O   0  0  0  0  0  0  0  0  0  0  0  0
  1  2  1  0
  2  3  2  0
  2  4  1  0
  3  5  1  0
  3  6  1  0
  4  7  2  0
  6  8  2  0
  7  9  1  0
 10  8  1  6
 10 11  1  0
 10 12  1  0
 11 13  1  1
 11 14  1  0
 12 15  1  0
 14 16  1  0
 16 17  1  0
 17 18  2  0
 17 19  1  0
 18 20  1  0
 19 21  2  0
 20 22  1  0
 20 23  1  0
 22 24  2  0
 22 25  1  0
 23 26  2  0
 25 27  2  0
 27 28  1  0
 29 30  1  0
 30 31  1  0
 30 32  1  0
 30 33  1  0
 33 34  2  0
 33 35  1  0
  7  8  1  0
 15 16  1  0
 21 23  1  0
 26 27  1  0
M  END
>  <MolRegNo>  (1) 
385316

>  <m>  (1) 
=

>  <Value>  (1) 
16200

>  <Unit>  (1) 
nM

>  <Type>  (1) 
IC50

>  <pValue>  (1) 
4.79

>  <Ligand Efficiency>  (1) 
0

>  <Binding Efficiency>  (1) 
0

>  <Surface Efficiency>  (1) 
0

>  <Assay Index>  (1) 
288258

>  <Assay Category>  (1) 


>  <Assay Organism>  (1) 


>  <Target ID>  (1) 
11365

>  <Target Name>  (1) 
Cytochrome P450 2D6

>  <Target Organism>  (1) 
Homo sapiens

>  <Target Description>  (1) 
Target is a single protein chain

>  <Sequence Accession>  (1) 
P10635

>  <Reference>  (1) 
Bioorg Med Chem Lett 17 (16), 4579-4583 (2007)

>  <Pubmed ID>  (1) 
17562364

>  <DOI>  (1) 
10.1016/j.bmcl.2007.05.087

$$$$
