4wnv_ligand_575
     RDKit          2D

 24 25  0  0  0  0  0  0  0  0999 V2000
    0.0000   -0.0000   -0.0000 O   0  0  0  0  0  0  0  0  0  0  0  0
   -0.0119   -1.4899   -0.0000 C   0  0  0  0  0  0  0  0  0  0  0  0
   -1.3230   -2.2288   -0.0000 C   0  0  0  0  0  0  0  0  0  0  0  0
    1.2753   -2.2288   -0.0000 C   0  0  0  0  0  0  0  0  0  0  0  0
   -2.6341   -1.4660   -0.0000 C   0  0  0  0  0  0  0  0  0  0  0  0
    2.5387   -1.4660   -0.0000 C   0  0  0  0  0  0  0  0  0  0  0  0
   -3.9452   -2.2050   -0.0000 C   0  0  0  0  0  0  0  0  0  0  0  0
    3.8379   -2.2050   -0.0000 C   0  0  0  0  0  0  0  0  0  0  0  0
   -5.2563   -1.4422   -0.0000 C   0  0  0  0  0  0  0  0  0  0  0  0
   -3.9571   -3.6949   -0.0000 C   0  0  0  0  0  0  0  0  0  0  0  0
    5.1251   -1.4422   -0.0000 C   0  0  0  0  0  0  0  0  0  0  0  0
    3.8260   -3.6949   -0.0000 C   0  0  0  0  0  0  0  0  0  0  0  0
   -6.5673   -2.1692   -0.0000 C   0  0  0  0  0  0  0  0  0  0  0  0
   -5.2682   -4.4338   -0.0000 C   0  0  0  0  0  0  0  0  0  0  0  0
    6.4124   -2.1692   -0.0000 C   0  0  0  0  0  0  0  0  0  0  0  0
    5.1132   -4.4338   -0.0000 C   0  0  0  0  0  0  0  0  0  0  0  0
   -7.8665   -1.3945   -0.0000 O   0  0  0  0  0  0  0  0  0  0  0  0
   -6.6150   -3.6591   -0.0000 C   0  0  0  0  0  0  0  0  0  0  0  0
    7.6877   -1.3945   -0.0000 O   0  0  0  0  0  0  0  0  0  0  0  0
    6.4124   -3.6710   -0.0000 C   0  0  0  0  0  0  0  0  0  0  0  0
   -7.8546    0.1192   -0.0000 C   0  0  0  0  0  0  0  0  0  0  0  0
   -7.9261   -4.3862   -0.0000 O   0  0  0  0  0  0  0  0  0  0  0  0
    7.6639    0.1192   -0.0000 C   0  0  0  0  0  0  0  0  0  0  0  0
    7.6996   -4.4100   -0.0000 O   0  0  0  0  0  0  0  0  0  0  0  0
  1  2  2  0
  2  3  1  0
  2  4  1  0
  3  5  2  0
  4  6  2  0
  5  7  1  0
  6  8  1  0
  7  9  2  0
  7 10  1  0
  8 11  2  0
  8 12  1  0
  9 13  1  0
 10 14  2  0
 11 15  1  0
 12 16  2  0
 13 17  1  0
 13 18  2  0
 15 19  1  0
 15 20  2  0
 17 21  1  0
 18 22  1  0
 19 23  1  0
 20 24  1  0
 14 18  1  0
 16 20  1  0
M  END
>  <MolRegNo>  (1) 
212655

>  <m>  (1) 
=

>  <Value>  (1) 
600

>  <Unit>  (1) 
nM

>  <Type>  (1) 
IC50

>  <pValue>  (1) 
6.22

>  <Ligand Efficiency>  (1) 
0

>  <Binding Efficiency>  (1) 
0

>  <Surface Efficiency>  (1) 
0

>  <Assay Index>  (1) 
346197

>  <Assay Category>  (1) 


>  <Assay Organism>  (1) 
Homo sapiens

>  <Target ID>  (1) 
11365

>  <Target Name>  (1) 
Cytochrome P450 2D6

>  <Target Organism>  (1) 
Homo sapiens

>  <Target Description>  (1) 
Target is a single protein chain

>  <Sequence Accession>  (1) 
P10635

>  <Reference>  (1) 
Eur J Med Chem 43 (8), 1621-1631 (2008)

>  <Pubmed ID>  (1) 
18249473

>  <DOI>  (1) 
10.1016/j.ejmech.2007.10.034

$$$$
