4wnv_ligand_950
     RDKit          2D

 26 28  0  0  0  0  0  0  0  0999 V2000
    0.0000   -0.0000   -0.0000 P   0  0  0  0  0  0  0  0  0  0  0  0
    0.7399   -1.2888   -0.0000 O   0  0  0  0  0  0  0  0  0  0  0  0
   -1.3127   -0.7399   -0.0000 O   0  0  0  0  0  0  0  0  0  0  0  0
   -0.7637    1.3007   -0.0000 O   0  0  0  0  0  0  0  0  0  0  0  0
    1.2769    0.7757   -0.0000 O   0  0  0  0  0  0  0  0  0  0  0  0
   -1.3246   -2.2316   -0.0000 C   0  0  0  0  0  0  0  0  0  0  0  0
   -2.6373   -2.9834   -0.0000 C   0  0  0  0  0  0  0  0  0  0  0  0
   -0.0239   -2.9834   -0.0000 C   0  0  0  0  0  0  0  0  0  0  0  0
   -2.6492   -4.4870   -0.0000 C   0  0  0  0  0  0  0  0  0  0  0  0
   -3.9500   -2.2316   -0.0000 C   0  0  0  0  0  0  0  0  0  0  0  0
   -0.0358   -4.4870   -0.0000 C   0  0  0  0  0  0  0  0  0  0  0  0
   -1.3604   -5.2269   -0.0000 N   0  0  0  0  0  0  0  0  0  0  0  0
   -3.9500   -5.2149   -0.0000 C   0  0  0  0  0  0  0  0  0  0  0  0
   -5.2507   -2.9595   -0.0000 C   0  0  0  0  0  0  0  0  0  0  0  0
    1.2530   -5.2269   -0.0000 C   0  0  0  0  0  0  0  0  0  0  0  0
   -5.2627   -4.4512   -0.0000 C   0  0  0  0  0  0  0  0  0  0  0  0
   -6.6947   -2.4822   -0.0000 O   0  0  0  0  0  0  0  0  0  0  0  0
    2.5299   -4.4631   -0.0000 C   0  0  0  0  0  0  0  0  0  0  0  0
    1.2291   -6.7186   -0.0000 C   0  0  0  0  0  0  0  0  0  0  0  0
   -6.7066   -4.9047   -0.0000 O   0  0  0  0  0  0  0  0  0  0  0  0
   -7.5897   -3.6874   -0.0000 C   0  0  0  0  0  0  0  0  0  0  0  0
    2.5180   -2.9476   -0.0000 F   0  0  0  0  0  0  0  0  0  0  0  0
    3.8187   -5.2030   -0.0000 C   0  0  0  0  0  0  0  0  0  0  0  0
    2.5180   -7.4584   -0.0000 C   0  0  0  0  0  0  0  0  0  0  0  0
    3.8068   -6.6947   -0.0000 C   0  0  0  0  0  0  0  0  0  0  0  0
    3.7232   -0.5728   -0.0000 Na  0  0  0  0  0 15  0  0  0  0  0  0
  1  2  2  0
  1  3  1  0
  1  4  1  0
  1  5  1  0
  3  6  1  0
  6  7  1  0
  6  8  1  0
  7  9  2  0
  7 10  1  0
  8 11  2  0
  9 12  1  0
  9 13  1  0
 10 14  2  0
 11 15  1  0
 13 16  2  0
 14 17  1  0
 15 18  2  0
 15 19  1  0
 16 20  1  0
 17 21  1  0
 18 22  1  0
 18 23  1  0
 19 24  2  0
 23 25  2  0
 11 12  1  0
 14 16  1  0
 20 21  1  0
 24 25  1  0
M  CHG  2   5  -1  26   1
M  END
>  <MolRegNo>  (1) 
614097

>  <m>  (1) 
=

>  <Value>  (1) 
3220

>  <Unit>  (1) 
nM

>  <Type>  (1) 
IC50

>  <pValue>  (1) 
5.49

>  <Ligand Efficiency>  (1) 
0

>  <Binding Efficiency>  (1) 
0

>  <Surface Efficiency>  (1) 
0

>  <Assay Index>  (1) 
460139

>  <Assay Category>  (1) 


>  <Assay Organism>  (1) 
Homo sapiens

>  <Target ID>  (1) 
11365

>  <Target Name>  (1) 
Cytochrome P450 2D6

>  <Target Organism>  (1) 
Homo sapiens

>  <Target Description>  (1) 
Target is a single protein chain

>  <Sequence Accession>  (1) 
P10635

>  <Reference>  (1) 
J Med Chem 53 (4), 1616-1626 (2010)

>  <Pubmed ID>  (1) 
20102207

>  <DOI>  (1) 
10.1021/jm901292j

$$$$
