4wnv_ligand_706
     RDKit          2D

 24 26  0  0  0  0  0  0  0  0999 V2000
    0.0000   -0.0000   -0.0000 O   0  0  0  0  0  0  0  0  0  0  0  0
   -0.0119   -1.4942   -0.0000 C   0  0  0  0  0  0  0  0  0  0  0  0
    1.2808   -2.2295   -0.0000 N   0  0  0  0  0  0  0  0  0  0  0  0
   -1.3282   -2.2295   -0.0000 C   0  0  0  0  0  0  0  0  0  0  0  0
    2.5734   -1.4705   -0.0000 C   0  0  0  0  0  0  0  0  0  0  0  0
    1.2689   -3.7237   -0.0000 C   0  0  0  0  0  0  0  0  0  0  0  0
   -1.4112   -3.7237   -0.0000 C   0  0  0  0  0  0  0  0  0  0  0  0
   -2.6209   -1.4349   -0.0000 C   0  0  0  0  0  0  0  0  0  0  0  0
    2.7157    0.0356   -0.0000 C   0  0  0  0  0  0  0  0  0  0  0  0
    3.9254   -2.0753   -0.0000 C   0  0  0  0  0  0  0  0  0  0  0  0
    2.5616   -4.4709   -0.0000 C   0  0  0  0  0  0  0  0  0  0  0  0
    4.1744    0.3676   -0.0000 N   0  0  0  0  0  0  0  0  0  0  0  0
    4.9215   -0.9487   -0.0000 C   0  0  0  0  0  0  0  0  0  0  0  0
    2.5378   -5.9651   -0.0000 C   0  0  0  0  0  0  0  0  0  0  0  0
    3.8423   -3.7000   -0.0000 C   0  0  0  0  0  0  0  0  0  0  0  0
    1.2215   -6.7004   -0.0000 C   0  0  0  0  0  0  0  0  0  0  0  0
    3.8305   -6.7004   -0.0000 C   0  0  0  0  0  0  0  0  0  0  0  0
    5.1350   -4.4353   -0.0000 C   0  0  0  0  0  0  0  0  0  0  0  0
   -0.0830   -5.9295   -0.0000 C   0  0  0  0  0  0  0  0  0  0  0  0
    1.2215   -8.1828   -0.0000 C   0  0  0  0  0  0  0  0  0  0  0  0
    5.1231   -5.9414   -0.0000 C   0  0  0  0  0  0  0  0  0  0  0  0
   -1.3994   -6.6648   -0.0000 C   0  0  0  0  0  0  0  0  0  0  0  0
   -0.0830   -8.9180   -0.0000 C   0  0  0  0  0  0  0  0  0  0  0  0
   -1.4112   -8.1590   -0.0000 C   0  0  0  0  0  0  0  0  0  0  0  0
  1  2  2  0
  2  3  1  0
  2  4  1  0
  5  3  1  6
  3  6  1  0
  4  7  1  0
  4  8  1  0
  5  9  1  0
  5 10  1  0
  6 11  1  0
  9 12  1  0
 10 13  1  0
 11 14  1  0
 11 15  2  0
 14 16  1  0
 14 17  2  0
 15 18  1  0
 16 19  2  0
 16 20  1  0
 17 21  1  0
 19 22  1  0
 20 23  2  0
 22 24  2  0
 12 13  1  0
 18 21  2  0
 23 24  1  0
M  END
>  <MolRegNo>  (1) 
489211

>  <m>  (1) 
=

>  <Value>  (1) 
1860

>  <Unit>  (1) 
nM

>  <Type>  (1) 
IC50

>  <pValue>  (1) 
5.73

>  <Ligand Efficiency>  (1) 
0

>  <Binding Efficiency>  (1) 
0

>  <Surface Efficiency>  (1) 
0

>  <Assay Index>  (1) 
339261

>  <Assay Category>  (1) 


>  <Assay Organism>  (1) 


>  <Target ID>  (1) 
11365

>  <Target Name>  (1) 
Cytochrome P450 2D6

>  <Target Organism>  (1) 
Homo sapiens

>  <Target Description>  (1) 
Target is a single protein chain

>  <Sequence Accession>  (1) 
P10635

>  <Reference>  (1) 
Bioorg Med Chem Lett 18 (15), 4355-4359 (2008)

>  <Pubmed ID>  (1) 
18621528

>  <DOI>  (1) 
10.1016/j.bmcl.2008.06.071

$$$$
