4wnv_ligand_166
     RDKit          2D

 17 18  0  0  0  0  0  0  0  0999 V2000
    0.0000   -0.0000   -0.0000 Cl  0  0  0  0  0  0  0  0  0  0  0  0
   -0.1060   -1.4840   -0.0000 C   0  0  0  0  0  0  0  0  0  0  0  0
    1.1307   -2.3085   -0.0000 C   0  0  0  0  0  0  0  0  0  0  0  0
   -1.4605   -2.1436   -0.0000 C   0  0  0  0  0  0  0  0  0  0  0  0
    2.4616   -1.6371   -0.0000 Cl  0  0  0  0  0  0  0  0  0  0  0  0
   -2.7207   -1.2956   -0.0000 C   0  0  0  0  0  0  0  0  0  0  0  0
   -4.1341   -1.8020   -0.0000 C   0  0  0  0  0  0  0  0  0  0  0  0
   -2.8032    0.2120   -0.0000 C   0  0  0  0  0  0  0  0  0  0  0  0
   -4.5581   -3.2154   -0.0000 O   0  0  0  0  0  0  0  0  0  0  0  0
   -5.0763   -0.6125   -0.0000 C   0  0  0  0  0  0  0  0  0  0  0  0
   -1.6371    1.1542   -0.0000 O   0  0  0  0  0  0  0  0  0  0  0  0
   -4.2401    0.6360   -0.0000 C   0  0  0  0  0  0  0  0  0  0  0  0
   -5.8772    0.6713   -0.0000 C   0  0  0  0  0  0  0  0  0  0  0  0
   -5.7712   -1.9198   -0.0000 C   0  0  0  0  0  0  0  0  0  0  0  0
   -7.3848    0.6125   -0.0000 C   0  0  0  0  0  0  0  0  0  0  0  0
   -7.2788   -1.9787   -0.0000 C   0  0  0  0  0  0  0  0  0  0  0  0
   -8.0797   -0.7067   -0.0000 C   0  0  0  0  0  0  0  0  0  0  0  0
  1  2  1  0
  2  3  1  0
  2  4  1  0
  3  5  1  0
  4  6  1  0
  6  7  1  0
  6  8  1  0
  7  9  2  0
  7 10  1  0
  8 11  2  0
  8 12  1  0
 10 13  1  0
 10 14  1  0
 13 15  1  0
 14 16  1  0
 15 17  1  0
 10 12  1  0
 16 17  1  0
M  END
>  <MolRegNo>  (1) 
313986

>  <m>  (1) 
=

>  <Value>  (1) 
310000

>  <Unit>  (1) 
nM

>  <Type>  (1) 
IC50

>  <pValue>  (1) 
0

>  <Ligand Efficiency>  (1) 
0

>  <Binding Efficiency>  (1) 
0

>  <Surface Efficiency>  (1) 
0

>  <Assay Index>  (1) 
237541

>  <Assay Category>  (1) 


>  <Assay Organism>  (1) 


>  <Target ID>  (1) 
11365

>  <Target Name>  (1) 
Cytochrome P450 2D6

>  <Target Organism>  (1) 
Homo sapiens

>  <Target Description>  (1) 
Target is a single protein chain

>  <Sequence Accession>  (1) 
P10635

>  <Reference>  (1) 
J Med Chem 47 (22), 5340-5346 (2004)

>  <Pubmed ID>  (1) 
15481972

>  <DOI>  (1) 
10.1021/jm049934e

$$$$
