4wnv_ligand_1093
     RDKit          2D

 19 21  0  0  0  0  0  0  0  0999 V2000
    0.0000   -0.0000   -0.0000 O   0  0  0  0  0  0  0  0  0  0  0  0
   -0.3927   -1.4399   -0.0000 C   0  0  0  0  0  0  0  0  0  0  0  0
    0.6664   -2.4872   -0.0000 C   0  0  0  0  0  0  0  0  0  0  0  0
   -1.8565   -1.8327   -0.0000 C   0  0  0  0  0  0  0  0  0  0  0  0
    2.0945   -2.0707   -0.0000 C   0  0  0  0  0  0  0  0  0  0  0  0
    0.2737   -3.9271   -0.0000 C   0  0  0  0  0  0  0  0  0  0  0  0
   -1.7851   -3.3202   -0.0000 N   0  0  0  0  0  0  0  0  0  0  0  0
   -3.3321   -1.4399   -0.0000 C   0  0  0  0  0  0  0  0  0  0  0  0
   -1.8803   -0.3094   -0.0000 C   0  0  0  0  0  0  0  0  0  0  0  0
    3.1536   -3.1060   -0.0000 C   0  0  0  0  0  0  0  0  0  0  0  0
    1.3328   -4.9744   -0.0000 C   0  0  0  0  0  0  0  0  0  0  0  0
   -3.2012   -3.8557   -0.0000 C   0  0  0  0  0  0  0  0  0  0  0  0
   -4.1532   -2.7014   -0.0000 C   0  0  0  0  0  0  0  0  0  0  0  0
   -3.2012    0.4403   -0.0000 C   0  0  0  0  0  0  0  0  0  0  0  0
    2.7728   -4.5579   -0.0000 C   0  0  0  0  0  0  0  0  0  0  0  0
    4.6412   -2.9989   -0.0000 C   0  0  0  0  0  0  0  0  0  0  0  0
   -3.2250    1.9517   -0.0000 C   0  0  0  0  0  0  0  0  0  0  0  0
    4.0342   -5.3433   -0.0000 N   0  0  0  0  0  0  0  0  0  0  0  0
    5.1886   -4.3794   -0.0000 N   0  0  0  0  0  0  0  0  0  0  0  0
  1  2  2  0
  2  3  1  0
  2  4  1  0
  3  5  2  0
  3  6  1  0
  4  7  1  0
  4  8  1  0
  4  9  1  0
  5 10  1  0
  6 11  2  0
  7 12  1  0
  8 13  1  0
  9 14  1  0
 10 15  2  0
 10 16  1  0
 14 17  1  0
 15 18  1  0
 16 19  2  0
 11 15  1  0
 12 13  1  0
 18 19  1  0
M  END
>  <MolRegNo>  (1) 
690545

>  <m>  (1) 
=

>  <Value>  (1) 
15000

>  <Unit>  (1) 
nM

>  <Type>  (1) 
IC50

>  <pValue>  (1) 
4.82

>  <Ligand Efficiency>  (1) 
0

>  <Binding Efficiency>  (1) 
0

>  <Surface Efficiency>  (1) 
0

>  <Assay Index>  (1) 
497257

>  <Assay Category>  (1) 


>  <Assay Organism>  (1) 


>  <Target ID>  (1) 
11365

>  <Target Name>  (1) 
Cytochrome P450 2D6

>  <Target Organism>  (1) 
Homo sapiens

>  <Target Description>  (1) 
Target is a single protein chain

>  <Sequence Accession>  (1) 
P10635

>  <Reference>  (1) 
Bioorg Med Chem Lett 20 (18), 5559-5566 (2010)

>  <Pubmed ID>  (1) 
20691589

>  <DOI>  (1) 
10.1016/j.bmcl.2010.07.020

$$$$
