4wnv_ligand_140
     RDKit          2D

 33 36  0  0  0  0  0  0  0  0999 V2000
    0.0000   -0.0000   -0.0000 O   0  0  0  0  0  0  0  0  0  0  0  0
   -0.0120   -1.4980   -0.0000 C   0  0  0  0  0  0  0  0  0  0  0  0
    1.2942    0.7789   -0.0000 C   0  0  0  0  0  0  0  0  0  0  0  0
    1.2942   -2.2290   -0.0000 C   0  0  0  0  0  0  0  0  0  0  0  0
   -1.3062   -2.2409   -0.0000 C   0  0  0  0  0  0  0  0  0  0  0  0
    2.5885    0.0360   -0.0000 C   0  0  0  0  0  0  0  0  0  0  0  0
    2.5885   -1.4620   -0.0000 O   0  0  0  0  0  0  0  0  0  0  0  0
    1.2823   -3.7030   -0.0000 C   0  0  0  0  0  0  0  0  0  0  0  0
   -1.3062   -3.7149   -0.0000 C   0  0  0  0  0  0  0  0  0  0  0  0
    2.9600    1.5099   -0.0000 O   0  0  0  0  0  0  0  0  0  0  0  0
    3.8827    0.8149   -0.0000 C   0  0  0  0  0  0  0  0  0  0  0  0
    3.8827   -2.2050   -0.0000 C   0  0  0  0  0  0  0  0  0  0  0  0
   -0.0240   -4.4459   -0.0000 C   0  0  0  0  0  0  0  0  0  0  0  0
   -2.6244   -4.4699   -0.0000 C   0  0  0  0  0  0  0  0  0  0  0  0
    5.1769    0.0719   -0.0000 N   0  0  0  0  0  0  0  0  0  0  0  0
   -0.0360   -5.9559   -0.0000 N   0  0  0  0  0  0  0  0  0  0  0  0
   -2.6364   -5.9679   -0.0000 N   0  0  0  0  0  0  0  0  0  0  0  0
   -3.9426   -3.7030   -0.0000 C   0  0  0  0  0  0  0  0  0  0  0  0
    6.6150    0.4674   -0.0000 C   0  0  0  0  0  0  0  0  0  0  0  0
   -1.3542   -6.6989   -0.0000 C   0  0  0  0  0  0  0  0  0  0  0  0
   -3.9546   -2.1810   -0.0000 C   0  0  0  0  0  0  0  0  0  0  0  0
    7.9092    1.2463   -0.0000 C   0  0  0  0  0  0  0  0  0  0  0  0
    8.0530    0.0959   -0.0000 C   0  0  0  0  0  0  0  0  0  0  0  0
    6.5910    1.9893   -0.0000 C   0  0  0  0  0  0  0  0  0  0  0  0
    9.3473    0.8868   -0.0000 C   0  0  0  0  0  0  0  0  0  0  0  0
   10.8213    1.1265   -0.0000 N   0  0  0  0  0  0  0  0  0  0  0  0
    9.0956   -0.5992   -0.0000 C   0  0  0  0  0  0  0  0  0  0  0  0
   11.4923   -0.2037   -0.0000 C   0  0  0  0  0  0  0  0  0  0  0  0
   10.4138   -1.2703   -0.0000 C   0  0  0  0  0  0  0  0  0  0  0  0
   12.9424   -0.5632   -0.0000 C   0  0  0  0  0  0  0  0  0  0  0  0
   10.8093   -2.7203   -0.0000 C   0  0  0  0  0  0  0  0  0  0  0  0
   13.3378   -2.0133   -0.0000 C   0  0  0  0  0  0  0  0  0  0  0  0
   12.2593   -3.0918   -0.0000 C   0  0  0  0  0  0  0  0  0  0  0  0
  1  2  1  0
  1  3  1  0
  2  4  2  0
  2  5  1  0
  3  6  1  0
  4  7  1  0
  4  8  1  0
  5  9  2  0
  6 10  1  0
  6 11  1  0
  7 12  1  0
  8 13  2  0
  9 14  1  0
 11 15  1  0
 13 16  1  0
 14 17  2  0
 14 18  1  0
 15 19  1  0
 16 20  2  0
 18 21  1  0
 19 22  1  0
 19 23  1  0
 19 24  1  0
 22 25  1  0
 25 26  1  0
 25 27  2  0
 26 28  1  0
 27 29  1  0
 28 30  2  0
 29 31  2  0
 30 32  1  0
 31 33  1  0
  9 13  1  0
 17 20  1  0
 28 29  1  0
 32 33  2  0
M  END
>  <MolRegNo>  (1) 
301459

>  <m>  (1) 
=

>  <Value>  (1) 
70

>  <Unit>  (1) 
nM

>  <Type>  (1) 
IC50

>  <pValue>  (1) 
7.16

>  <Ligand Efficiency>  (1) 
0

>  <Binding Efficiency>  (1) 
0

>  <Surface Efficiency>  (1) 
0

>  <Assay Index>  (1) 
238811

>  <Assay Category>  (1) 


>  <Assay Organism>  (1) 
Homo sapiens

>  <Target ID>  (1) 
11365

>  <Target Name>  (1) 
Cytochrome P450 2D6

>  <Target Organism>  (1) 
Homo sapiens

>  <Target Description>  (1) 
Target is a single protein chain

>  <Sequence Accession>  (1) 
P10635

>  <Reference>  (1) 
Bioorg Med Chem Lett 15 (17), 3816-3820 (2005)

>  <Pubmed ID>  (1) 
15993593

>  <DOI>  (1) 
10.1016/j.bmcl.2005.06.007

$$$$
