4wnv_ligand_111
     RDKit          2D

 28 30  0  0  0  0  0  0  0  0999 V2000
    0.0000   -0.0000   -0.0000 O   0  0  0  0  0  0  0  0  0  0  0  0
   -0.0118   -1.4930   -0.0000 C   0  0  0  0  0  0  0  0  0  0  0  0
    1.2916    0.7702   -0.0000 C   0  0  0  0  0  0  0  0  0  0  0  0
   -1.3271   -2.2396   -0.0000 C   0  0  0  0  0  0  0  0  0  0  0  0
    1.2916   -2.2396   -0.0000 C   0  0  0  0  0  0  0  0  0  0  0  0
    2.5832    0.0237   -0.0000 C   0  0  0  0  0  0  0  0  0  0  0  0
   -2.6424   -1.4693   -0.0000 C   0  0  0  0  0  0  0  0  0  0  0  0
   -1.3390   -3.7326   -0.0000 C   0  0  0  0  0  0  0  0  0  0  0  0
    1.2798   -3.7326   -0.0000 C   0  0  0  0  0  0  0  0  0  0  0  0
    2.5595   -1.4693   -0.0000 O   0  0  0  0  0  0  0  0  0  0  0  0
    3.8748    0.8058   -0.0000 C   0  0  0  0  0  0  0  0  0  0  0  0
   -3.9577   -0.7110   -0.0000 N   0  0  0  0  0  0  0  0  0  0  0  0
   -0.0474   -4.4673   -0.0000 C   0  0  0  0  0  0  0  0  0  0  0  0
    5.1664    0.0592   -0.0000 N   0  0  0  0  0  0  0  0  0  0  0  0
   -0.0592   -5.9603   -0.0000 O   0  0  0  0  0  0  0  0  0  0  0  0
    6.4580    0.8176   -0.0000 C   0  0  0  0  0  0  0  0  0  0  0  0
    7.7496    1.5878   -0.0000 C   0  0  0  0  0  0  0  0  0  0  0  0
    7.7496    0.0711   -0.0000 C   0  0  0  0  0  0  0  0  0  0  0  0
    6.8372    2.2870   -0.0000 C   0  0  0  0  0  0  0  0  0  0  0  0
    9.0412    0.8413   -0.0000 C   0  0  0  0  0  0  0  0  0  0  0  0
   10.2380    1.7419   -0.0000 C   0  0  0  0  0  0  0  0  0  0  0  0
    9.4796   -0.5688   -0.0000 C   0  0  0  0  0  0  0  0  0  0  0  0
   11.4348    0.8650   -0.0000 C   0  0  0  0  0  0  0  0  0  0  0  0
   10.3802    3.2468   -0.0000 C   0  0  0  0  0  0  0  0  0  0  0  0
   10.9727   -0.5569   -0.0000 N   0  0  0  0  0  0  0  0  0  0  0  0
   12.8094    1.4930   -0.0000 C   0  0  0  0  0  0  0  0  0  0  0  0
   11.7429    3.8748   -0.0000 C   0  0  0  0  0  0  0  0  0  0  0  0
   12.9516    2.9979   -0.0000 C   0  0  0  0  0  0  0  0  0  0  0  0
  1  2  1  0
  1  3  1  0
  2  4  2  0
  2  5  1  0
  3  6  1  0
  4  7  1  0
  4  8  1  0
  5  9  2  0
  6 10  1  0
  6 11  1  0
  7 12  3  0
  8 13  2  0
 11 14  1  0
 13 15  1  0
 14 16  1  0
 16 17  1  0
 16 18  1  0
 16 19  1  0
 17 20  1  0
 20 21  1  0
 20 22  2  0
 21 23  2  0
 21 24  1  0
 22 25  1  0
 23 26  1  0
 24 27  2  0
 26 28  2  0
  9 13  1  0
 23 25  1  0
 27 28  1  0
M  END
>  <MolRegNo>  (1) 
301266

>  <m>  (1) 
=

>  <Value>  (1) 
310

>  <Unit>  (1) 
nM

>  <Type>  (1) 
IC50

>  <pValue>  (1) 
6.51

>  <Ligand Efficiency>  (1) 
0

>  <Binding Efficiency>  (1) 
0

>  <Surface Efficiency>  (1) 
0

>  <Assay Index>  (1) 
238811

>  <Assay Category>  (1) 


>  <Assay Organism>  (1) 
Homo sapiens

>  <Target ID>  (1) 
11365

>  <Target Name>  (1) 
Cytochrome P450 2D6

>  <Target Organism>  (1) 
Homo sapiens

>  <Target Description>  (1) 
Target is a single protein chain

>  <Sequence Accession>  (1) 
P10635

>  <Reference>  (1) 
Bioorg Med Chem Lett 15 (17), 3816-3820 (2005)

>  <Pubmed ID>  (1) 
15993593

>  <DOI>  (1) 
10.1016/j.bmcl.2005.06.007

$$$$
