4wnv_ligand_1003
     RDKit          2D

 23 25  0  0  0  0  0  0  0  0999 V2000
    0.0000   -0.0000   -0.0000 S   0  0  0  0  0  0  0  0  0  0  0  0
   -0.1757    1.4991   -0.0000 C   0  0  0  0  0  0  0  0  0  0  0  0
    1.4522   -0.2928   -0.0000 C   0  0  0  0  0  0  0  0  0  0  0  0
    1.1712    2.1198   -0.0000 N   0  0  0  0  0  0  0  0  0  0  0  0
   -1.4874    2.2486   -0.0000 C   0  0  0  0  0  0  0  0  0  0  0  0
    2.1784    1.0189   -0.0000 C   0  0  0  0  0  0  0  0  0  0  0  0
   -1.4991    3.7477   -0.0000 C   0  0  0  0  0  0  0  0  0  0  0  0
   -2.7874    1.4991   -0.0000 C   0  0  0  0  0  0  0  0  0  0  0  0
   -2.7288    4.6378   -0.0000 C   0  0  0  0  0  0  0  0  0  0  0  0
   -0.3045    4.6495   -0.0000 C   0  0  0  0  0  0  0  0  0  0  0  0
   -2.2838    6.0783   -0.0000 C   0  0  0  0  0  0  0  0  0  0  0  0
   -4.2045    4.3333   -0.0000 C   0  0  0  0  0  0  0  0  0  0  0  0
   -0.7847    6.0900   -0.0000 C   0  0  0  0  0  0  0  0  0  0  0  0
    1.1126    4.2045   -0.0000 C   0  0  0  0  0  0  0  0  0  0  0  0
   -3.3027    7.1909   -0.0000 C   0  0  0  0  0  0  0  0  0  0  0  0
   -5.2234    5.4459   -0.0000 C   0  0  0  0  0  0  0  0  0  0  0  0
    2.2018    5.2234   -0.0000 C   0  0  0  0  0  0  0  0  0  0  0  0
   -4.7666    6.8864   -0.0000 C   0  0  0  0  0  0  0  0  0  0  0  0
    3.6189    4.7783   -0.0000 N   0  0  0  0  0  0  0  0  0  0  0  0
   -5.7855    7.9990   -0.0000 O   0  0  0  0  0  0  0  0  0  0  0  0
    4.7081    5.7972   -0.0000 C   0  0  0  0  0  0  0  0  0  0  0  0
    3.9234    3.3261   -0.0000 C   0  0  0  0  0  0  0  0  0  0  0  0
   -5.3405    9.4395   -0.0000 C   0  0  0  0  0  0  0  0  0  0  0  0
  1  2  1  0
  1  3  1  0
  2  4  2  0
  2  5  1  0
  3  6  2  0
  5  7  1  0
  5  8  1  1
  7  9  1  0
  7 10  2  0
  9 11  2  0
  9 12  1  0
 10 13  1  0
 10 14  1  0
 11 15  1  0
 12 16  2  0
 14 17  1  0
 15 18  2  0
 17 19  1  0
 18 20  1  0
 19 21  1  0
 19 22  1  0
 20 23  1  0
  4  6  1  0
 11 13  1  0
 16 18  1  0
M  END
>  <MolRegNo>  (1) 
621251

>  <m>  (1) 
=

>  <Value>  (1) 
5600

>  <Unit>  (1) 
nM

>  <Type>  (1) 
IC50

>  <pValue>  (1) 
5.25

>  <Ligand Efficiency>  (1) 
0

>  <Binding Efficiency>  (1) 
0

>  <Surface Efficiency>  (1) 
0

>  <Assay Index>  (1) 
470598

>  <Assay Category>  (1) 


>  <Assay Organism>  (1) 


>  <Target ID>  (1) 
11365

>  <Target Name>  (1) 
Cytochrome P450 2D6

>  <Target Organism>  (1) 
Homo sapiens

>  <Target Description>  (1) 
Target is a single protein chain

>  <Sequence Accession>  (1) 
P10635

>  <Reference>  (1) 
Bioorg Med Chem Lett 20 (8), 2629-2633 (2010)

>  <Pubmed ID>  (1) 
20227880

>  <DOI>  (1) 
10.1016/j.bmcl.2010.02.055

$$$$
