4wnv_ligand_1027
     RDKit          2D

 23 25  0  0  0  0  0  0  0  0999 V2000
    0.0000   -0.0000   -0.0000 F   0  0  0  0  0  0  0  0  0  0  0  0
   -0.0119    1.5120   -0.0000 C   0  0  0  0  0  0  0  0  0  0  0  0
    1.2858    2.2858   -0.0000 C   0  0  0  0  0  0  0  0  0  0  0  0
   -1.3215    2.2739   -0.0000 C   0  0  0  0  0  0  0  0  0  0  0  0
    1.2739    3.8097   -0.0000 C   0  0  0  0  0  0  0  0  0  0  0  0
    2.5716    1.5477   -0.0000 C   0  0  0  0  0  0  0  0  0  0  0  0
   -1.3334    3.7978   -0.0000 C   0  0  0  0  0  0  0  0  0  0  0  0
   -0.0357    4.5717   -0.0000 C   0  0  0  0  0  0  0  0  0  0  0  0
    3.8573    2.3215   -0.0000 N   0  0  0  0  0  0  0  0  0  0  0  0
    2.5597    0.0595   -0.0000 C   0  0  0  0  0  0  0  0  0  0  0  0
    5.1431    1.5715   -0.0000 C   0  0  0  0  0  0  0  0  0  0  0  0
    3.8335    3.8216   -0.0000 C   0  0  0  0  0  0  0  0  0  0  0  0
    3.8454   -0.6786   -0.0000 C   0  0  0  0  0  0  0  0  0  0  0  0
    6.4289    2.3334   -0.0000 C   0  0  0  0  0  0  0  0  0  0  0  0
    5.1312    4.5836   -0.0000 C   0  0  0  0  0  0  0  0  0  0  0  0
    3.8335   -2.1668   -0.0000 C   0  0  0  0  0  0  0  0  0  0  0  0
    5.1193    0.0952   -0.0000 C   0  0  0  0  0  0  0  0  0  0  0  0
    6.4170    3.8454   -0.0000 N   0  0  0  0  0  0  0  0  0  0  0  0
    2.5239   -2.9049   -0.0000 O   0  0  0  0  0  0  0  0  0  0  0  0
    5.1193   -2.9049   -0.0000 C   0  0  0  0  0  0  0  0  0  0  0  0
    6.4051   -0.6429   -0.0000 C   0  0  0  0  0  0  0  0  0  0  0  0
    1.2143   -2.1430   -0.0000 C   0  0  0  0  0  0  0  0  0  0  0  0
    6.4051   -2.1311   -0.0000 C   0  0  0  0  0  0  0  0  0  0  0  0
  1  2  1  0
  2  3  2  0
  2  4  1  0
  3  5  1  0
  3  6  1  0
  4  7  2  0
  5  8  2  0
  6  9  1  0
  6 10  1  0
  9 11  1  0
  9 12  1  0
 10 13  1  0
 11 14  1  0
 12 15  1  0
 13 16  2  0
 13 17  1  0
 14 18  1  0
 16 19  1  0
 16 20  1  0
 17 21  2  0
 19 22  1  0
 20 23  2  0
  7  8  1  0
 15 18  1  0
 21 23  1  0
M  END
>  <MolRegNo>  (1) 
632225

>  <m>  (1) 
=

>  <Value>  (1) 
17700

>  <Unit>  (1) 
nM

>  <Type>  (1) 
IC50

>  <pValue>  (1) 
4.75

>  <Ligand Efficiency>  (1) 
0

>  <Binding Efficiency>  (1) 
0

>  <Surface Efficiency>  (1) 
0

>  <Assay Index>  (1) 
480301

>  <Assay Category>  (1) 


>  <Assay Organism>  (1) 


>  <Target ID>  (1) 
11365

>  <Target Name>  (1) 
Cytochrome P450 2D6

>  <Target Organism>  (1) 
Homo sapiens

>  <Target Description>  (1) 
Target is a single protein chain

>  <Sequence Accession>  (1) 
P10635

>  <Reference>  (1) 
Bioorg Med Chem Lett 20 (12), 3788-3792 (2010)

>  <Pubmed ID>  (1) 
20471260

>  <DOI>  (1) 
10.1016/j.bmcl.2010.04.052

$$$$
