4wnv_ligand_470
     RDKit          2D

 37 41  0  0  0  0  0  0  0  0999 V2000
    0.0000   -0.0000   -0.0000 F   0  0  0  0  0  0  0  0  0  0  0  0
    1.3009   -0.7400   -0.0000 C   0  0  0  0  0  0  0  0  0  0  0  0
    2.5899    0.0239   -0.0000 C   0  0  0  0  0  0  0  0  0  0  0  0
    1.3009   -2.2438   -0.0000 C   0  0  0  0  0  0  0  0  0  0  0  0
    3.8789   -0.7161   -0.0000 C   0  0  0  0  0  0  0  0  0  0  0  0
    2.5899   -2.9718   -0.0000 C   0  0  0  0  0  0  0  0  0  0  0  0
    3.8670   -2.2080   -0.0000 C   0  0  0  0  0  0  0  0  0  0  0  0
    5.1679   -2.9480   -0.0000 C   0  0  0  0  0  0  0  0  0  0  0  0
    6.4569   -2.1841   -0.0000 C   0  0  0  0  0  0  0  0  0  0  0  0
    7.7459   -2.9241   -0.0000 C   0  0  0  0  0  0  0  0  0  0  0  0
    6.4449   -0.6684   -0.0000 C   0  0  0  0  0  0  0  0  0  0  0  0
    9.0348   -2.1602   -0.0000 N   0  0  0  0  0  0  0  0  0  0  0  0
    7.7339    0.1074   -0.0000 C   0  0  0  0  0  0  0  0  0  0  0  0
    9.0229   -0.6445   -0.0000 C   0  0  0  0  0  0  0  0  0  0  0  0
   10.3238   -2.9002   -0.0000 C   0  0  0  0  0  0  0  0  0  0  0  0
   11.6247   -2.1364   -0.0000 C   0  0  0  0  0  0  0  0  0  0  0  0
   12.9137   -2.8883   -0.0000 C   0  0  0  0  0  0  0  0  0  0  0  0
   11.6128   -0.6206   -0.0000 C   0  0  0  0  0  0  0  0  0  0  0  0
   12.8899   -4.3802   -0.0000 N   0  0  0  0  0  0  0  0  0  0  0  0
   14.2027   -2.1364   -0.0000 C   0  0  0  0  0  0  0  0  0  0  0  0
   12.9137    0.1432   -0.0000 C   0  0  0  0  0  0  0  0  0  0  0  0
   14.1789   -5.1321   -0.0000 C   0  0  0  0  0  0  0  0  0  0  0  0
   14.2027   -0.6206   -0.0000 C   0  0  0  0  0  0  0  0  0  0  0  0
   14.1550   -6.6240   -0.0000 O   0  0  0  0  0  0  0  0  0  0  0  0
   15.4798   -4.3682   -0.0000 N   0  0  0  0  0  0  0  0  0  0  0  0
   16.7688   -5.1201   -0.0000 C   0  0  0  0  0  0  0  0  0  0  0  0
   18.0577   -4.3563   -0.0000 C   0  0  0  0  0  0  0  0  0  0  0  0
   16.7449   -6.6120   -0.0000 C   0  0  0  0  0  0  0  0  0  0  0  0
   19.3467   -5.0963   -0.0000 C   0  0  0  0  0  0  0  0  0  0  0  0
   18.0339   -7.3639   -0.0000 C   0  0  0  0  0  0  0  0  0  0  0  0
   20.6357   -4.3324   -0.0000 C   0  0  0  0  0  0  0  0  0  0  0  0
   19.3348   -6.6001   -0.0000 C   0  0  0  0  0  0  0  0  0  0  0  0
   21.9963   -4.9411   -0.0000 N   0  0  0  0  0  0  0  0  0  0  0  0
   20.7789   -2.8167   -0.0000 N   0  0  0  0  0  0  0  0  0  0  0  0
   22.9989   -3.8073   -0.0000 N   0  0  0  0  0  0  0  0  0  0  0  0
   22.2470   -2.4944   -0.0000 N   0  0  0  0  0  0  0  0  0  0  0  0
   19.6451   -1.7903   -0.0000 C   0  0  0  0  0  0  0  0  0  0  0  0
  1  2  1  0
  2  3  2  0
  2  4  1  0
  3  5  1  0
  4  6  2  0
  5  7  2  0
  7  8  1  0
  9  8  1  1
  9 10  1  0
  9 11  1  0
 10 12  1  0
 11 13  1  0
 12 14  1  0
 12 15  1  0
 16 15  1  1
 16 17  1  0
 16 18  1  0
 17 19  1  6
 17 20  1  0
 18 21  1  0
 19 22  1  0
 20 23  1  0
 22 24  2  0
 22 25  1  0
 25 26  1  0
 26 27  2  0
 26 28  1  0
 27 29  1  0
 28 30  2  0
 29 31  1  0
 29 32  2  0
 31 33  2  0
 31 34  1  0
 33 35  1  0
 34 36  1  0
 34 37  1  0
  6  7  1  0
 13 14  1  0
 21 23  1  0
 30 32  1  0
 35 36  2  0
M  END
>  <MolRegNo>  (1) 
323713

>  <m>  (1) 
=

>  <Value>  (1) 
210

>  <Unit>  (1) 
nM

>  <Type>  (1) 
IC50

>  <pValue>  (1) 
6.68

>  <Ligand Efficiency>  (1) 
0

>  <Binding Efficiency>  (1) 
0

>  <Surface Efficiency>  (1) 
0

>  <Assay Index>  (1) 
307824

>  <Assay Category>  (1) 


>  <Assay Organism>  (1) 
Homo sapiens

>  <Target ID>  (1) 
11365

>  <Target Name>  (1) 
Cytochrome P450 2D6

>  <Target Organism>  (1) 
Homo sapiens

>  <Target Description>  (1) 
Target is a single protein chain

>  <Sequence Accession>  (1) 
P10635

>  <Reference>  (1) 
Bioorg Med Chem Lett 17 (11), 2992-2997 (2007)

>  <Pubmed ID>  (1) 
17418570

>  <DOI>  (1) 
10.1016/j.bmcl.2007.03.065

$$$$
