4wnv_ligand_490
     RDKit          2D

 38 42  0  0  1  0  0  0  0  0999 V2000
    0.0000   -0.0000   -0.0000 F   0  0  0  0  0  0  0  0  0  0  0  0
    1.4929   -0.0000   -0.0000 C   0  0  0  0  0  0  0  0  0  0  0  0
    2.2275   -1.2915   -0.0000 C   0  0  0  0  0  0  0  0  0  0  0  0
    2.2394    1.3033   -0.0000 C   0  0  0  0  0  0  0  0  0  0  0  0
    3.7205   -1.2915   -0.0000 C   0  0  0  0  0  0  0  0  0  0  0  0
    3.7205    1.3152   -0.0000 C   0  0  0  0  0  0  0  0  0  0  0  0
    4.4669    0.0237   -0.0000 C   0  0  0  0  0  0  0  0  0  0  0  0
    5.9598    0.0355   -0.0000 C   0  0  0  0  0  0  0  0  0  0  0  0
    6.7063    1.3507   -0.0000 C   0  0  0  0  0  0  0  0  0  0  0  0
    8.1992    1.3626   -0.0000 C   0  0  0  0  0  0  0  0  0  0  0  0
    5.9361    2.6659   -0.0000 C   0  0  0  0  0  0  0  0  0  0  0  0
    8.9457    2.6659   -0.0000 N   0  0  0  0  0  0  0  0  0  0  0  0
    6.6826    3.9811   -0.0000 C   0  0  0  0  0  0  0  0  0  0  0  0
    8.1874    3.9811   -0.0000 C   0  0  0  0  0  0  0  0  0  0  0  0
   10.4386    2.6659   -0.0000 C   0  0  0  0  0  0  0  0  0  0  0  0
   11.1732    1.3744   -0.0000 C   0  0  0  0  0  0  0  0  0  0  0  0
   12.6661    1.3744   -0.0000 C   0  0  0  0  0  0  0  0  0  0  0  0
   13.4126    2.6896   -0.0000 N   0  0  0  0  0  0  0  0  0  0  0  0
   13.4007    0.0829   -0.0000 C   0  0  0  0  0  0  0  0  0  0  0  0
   14.9055    2.6896   -0.0000 C   0  0  0  0  0  0  0  0  0  0  0  0
   15.6401    1.3981   -0.0000 O   0  0  0  0  0  0  0  0  0  0  0  0
   15.6520    4.0048   -0.0000 N   0  0  0  0  0  0  0  0  0  0  0  0
   17.1449    4.0048   -0.0000 C   0  0  0  0  0  0  0  0  0  0  0  0
   17.8795    5.3200   -0.0000 C   0  0  0  0  0  0  0  0  0  0  0  0
   17.8676    2.7133   -0.0000 C   0  0  0  0  0  0  0  0  0  0  0  0
   19.3724    5.3319   -0.0000 C   0  0  0  0  0  0  0  0  0  0  0  0
   19.3606    2.7133   -0.0000 C   0  0  0  0  0  0  0  0  0  0  0  0
   20.1189    6.6470   -0.0000 N   0  0  0  0  0  0  0  0  0  0  0  0
   20.1189    4.0285   -0.0000 C   0  0  0  0  0  0  0  0  0  0  0  0
   20.1070    1.4218   -0.0000 N   0  0  0  0  0  0  0  0  0  0  0  0
   19.4909    8.0452   -0.0000 N   0  0  0  0  0  0  0  0  0  0  0  0
   21.5999    6.8248   -0.0000 C   0  0  0  0  0  0  0  0  0  0  0  0
   19.4791    0.0592   -0.0000 N   0  0  0  0  0  0  0  0  0  0  0  0
   21.5881    1.2678   -0.0000 C   0  0  0  0  0  0  0  0  0  0  0  0
   20.6047    9.0642   -0.0000 N   0  0  0  0  0  0  0  0  0  0  0  0
   21.9080    8.3058   -0.0000 C   0  0  0  0  0  0  0  0  0  0  0  0
   20.5810   -0.9479   -0.0000 N   0  0  0  0  0  0  0  0  0  0  0  0
   21.8843   -0.1896   -0.0000 C   0  0  0  0  0  0  0  0  0  0  0  0
  1  2  1  0
  2  3  2  0
  2  4  1  0
  3  5  1  0
  4  6  2  0
  5  7  2  0
  7  8  1  0
  9  8  1  6
  9 10  1  0
  9 11  1  0
 10 12  1  0
 11 13  1  0
 12 14  1  0
 12 15  1  0
 15 16  1  0
 16 17  1  0
 17 18  1  0
 17 19  1  6
 18 20  1  0
 20 21  2  0
 20 22  1  0
 22 23  1  0
 23 24  2  0
 23 25  1  0
 24 26  1  0
 25 27  2  0
 26 28  1  0
 26 29  2  0
 27 30  1  0
 28 31  1  0
 28 32  1  0
 30 33  1  0
 30 34  1  0
 31 35  2  0
 32 36  2  0
 33 37  2  0
 34 38  2  0
  6  7  1  0
 13 14  1  0
 27 29  1  0
 35 36  1  0
 37 38  1  0
M  END
>  <MolRegNo>  (1) 
437835

>  <m>  (1) 
=

>  <Value>  (1) 
500

>  <Unit>  (1) 
nM

>  <Type>  (1) 
IC50

>  <pValue>  (1) 
6.3

>  <Ligand Efficiency>  (1) 
0

>  <Binding Efficiency>  (1) 
0

>  <Surface Efficiency>  (1) 
0

>  <Assay Index>  (1) 
314783

>  <Assay Category>  (1) 


>  <Assay Organism>  (1) 


>  <Target ID>  (1) 
11365

>  <Target Name>  (1) 
Cytochrome P450 2D6

>  <Target Organism>  (1) 
Homo sapiens

>  <Target Description>  (1) 
Target is a single protein chain

>  <Sequence Accession>  (1) 
P10635

>  <Reference>  (1) 
Bioorg Med Chem Lett 18 (2), 576-585 (2008)

>  <Pubmed ID>  (1) 
18096386

>  <DOI>  (1) 
10.1016/j.bmcl.2007.11.067

$$$$
