4wnv_ligand_189
     RDKit          2D

 31 34  0  0  1  0  0  0  0  0999 V2000
    0.0000   -0.0000   -0.0000 S   0  0  0  0  0  0  0  0  0  0  0  0
    0.0000    1.5138   -0.0000 O   0  0  0  0  0  0  0  0  0  0  0  0
    0.0000   -1.4900   -0.0000 O   0  0  0  0  0  0  0  0  0  0  0  0
    1.4900   -0.0000   -0.0000 N   0  0  0  0  0  0  0  0  0  0  0  0
   -1.5257    0.0119   -0.0000 C   0  0  0  0  0  0  0  0  0  0  0  0
    2.3482   -1.2397   -0.0000 C   0  0  0  0  0  0  0  0  0  0  0  0
    2.3959    1.2277   -0.0000 C   0  0  0  0  0  0  0  0  0  0  0  0
    3.8024   -0.7748   -0.0000 C   0  0  0  0  0  0  0  0  0  0  0  0
    3.8262    0.7390   -0.0000 C   0  0  0  0  0  0  0  0  0  0  0  0
    5.0897   -1.5138   -0.0000 C   0  0  0  0  0  0  0  0  0  0  0  0
    5.0897    1.4780   -0.0000 C   0  0  0  0  0  0  0  0  0  0  0  0
    6.3771   -0.7509   -0.0000 C   0  0  0  0  0  0  0  0  0  0  0  0
    6.3771    0.7390   -0.0000 C   0  0  0  0  0  0  0  0  0  0  0  0
    7.6644   -1.4900   -0.0000 C   0  0  0  0  0  0  0  0  0  0  0  0
    8.9517   -0.7271   -0.0000 C   0  0  0  0  0  0  0  0  0  0  0  0
    8.9398    0.7867   -0.0000 O   0  0  0  0  0  0  0  0  0  0  0  0
   10.2510   -1.4661   -0.0000 N   0  0  0  0  0  0  0  0  0  0  0  0
   11.5383   -0.7033   -0.0000 C   0  0  0  0  0  0  0  0  0  0  0  0
   10.2391   -2.9561   -0.0000 C   0  0  0  0  0  0  0  0  0  0  0  0
   11.5264    0.8105   -0.0000 C   0  0  0  0  0  0  0  0  0  0  0  0
   12.8256   -1.4423   -0.0000 C   0  0  0  0  0  0  0  0  0  0  0  0
   10.2152    1.5734   -0.0000 C   0  0  0  0  0  0  0  0  0  0  0  0
   12.8137    1.5734   -0.0000 C   0  0  0  0  0  0  0  0  0  0  0  0
   14.1130   -0.6675   -0.0000 N   0  0  0  0  0  0  0  0  0  0  0  0
   10.1914    3.0634   -0.0000 C   0  0  0  0  0  0  0  0  0  0  0  0
   12.8018    3.0872   -0.0000 C   0  0  0  0  0  0  0  0  0  0  0  0
   15.4599   -1.2516   -0.0000 C   0  0  0  0  0  0  0  0  0  0  0  0
   14.2560    0.8344   -0.0000 C   0  0  0  0  0  0  0  0  0  0  0  0
   11.4906    3.8382   -0.0000 C   0  0  0  0  0  0  0  0  0  0  0  0
   16.4492   -0.1311   -0.0000 C   0  0  0  0  0  0  0  0  0  0  0  0
   15.7102    1.1681   -0.0000 C   0  0  0  0  0  0  0  0  0  0  0  0
  1  2  2  0
  1  3  2  0
  1  4  1  0
  1  5  1  0
  4  6  1  0
  4  7  1  0
  6  8  1  0
  7  9  1  0
  8 10  2  0
  9 11  2  0
 10 12  1  0
 11 13  1  0
 12 14  1  0
 14 15  1  0
 15 16  2  0
 15 17  1  0
 18 17  1  0
 17 19  1  0
 18 20  1  0
 18 21  1  1
 20 22  2  0
 20 23  1  0
 21 24  1  0
 22 25  1  0
 23 26  2  0
 24 27  1  0
 24 28  1  0
 25 29  2  0
 27 30  1  0
 28 31  1  0
  8  9  1  0
 12 13  2  0
 26 29  1  0
 30 31  1  0
M  END
>  <MolRegNo>  (1) 
320053

>  <m>  (1) 
=

>  <Value>  (1) 
1037

>  <Unit>  (1) 
nM

>  <Type>  (1) 
IC50

>  <pValue>  (1) 
5.98

>  <Ligand Efficiency>  (1) 
0

>  <Binding Efficiency>  (1) 
0

>  <Surface Efficiency>  (1) 
0

>  <Assay Index>  (1) 
238842

>  <Assay Category>  (1) 


>  <Assay Organism>  (1) 
Homo sapiens

>  <Target ID>  (1) 
11365

>  <Target Name>  (1) 
Cytochrome P450 2D6

>  <Target Organism>  (1) 
Homo sapiens

>  <Target Description>  (1) 
Target is a single protein chain

>  <Sequence Accession>  (1) 
P10635

>  <Reference>  (1) 
Bioorg Med Chem Lett 15 (10), 2647-2652 (2005)

>  <Pubmed ID>  (1) 
15863335

>  <DOI>  (1) 
10.1016/j.bmcl.2005.03.020

$$$$
