4wnv_ligand_834
     RDKit          2D

 26 29  0  0  0  0  0  0  0  0999 V2000
    0.0000   -0.0000   -0.0000 O   0  0  0  0  0  0  0  0  0  0  0  0
   -0.0118   -1.4885   -0.0000 C   0  0  0  0  0  0  0  0  0  0  0  0
    1.2759   -2.2210   -0.0000 N   0  0  0  0  0  0  0  0  0  0  0  0
   -1.3231   -2.2210   -0.0000 C   0  0  0  0  0  0  0  0  0  0  0  0
    1.2641   -3.7095   -0.0000 C   0  0  0  0  0  0  0  0  0  0  0  0
    2.5636   -1.4649   -0.0000 C   0  0  0  0  0  0  0  0  0  0  0  0
   -2.6345   -1.4649   -0.0000 C   0  0  0  0  0  0  0  0  0  0  0  0
   -1.3350   -3.7095   -0.0000 C   0  0  0  0  0  0  0  0  0  0  0  0
    2.4691   -4.5837   -0.0000 C   0  0  0  0  0  0  0  0  0  0  0  0
    0.0354   -4.5837   -0.0000 C   0  0  0  0  0  0  0  0  0  0  0  0
    3.8513   -2.1974   -0.0000 C   0  0  0  0  0  0  0  0  0  0  0  0
   -2.6463    0.0473   -0.0000 O   0  0  0  0  0  0  0  0  0  0  0  0
   -3.9458   -2.1974   -0.0000 C   0  0  0  0  0  0  0  0  0  0  0  0
   -2.6463   -4.4420   -0.0000 C   0  0  0  0  0  0  0  0  0  0  0  0
    1.9965   -6.0014   -0.0000 N   0  0  0  0  0  0  0  0  0  0  0  0
    0.4844   -6.0014   -0.0000 C   0  0  0  0  0  0  0  0  0  0  0  0
    4.2293   -3.6386   -0.0000 C   0  0  0  0  0  0  0  0  0  0  0  0
    5.2926   -1.7957   -0.0000 C   0  0  0  0  0  0  0  0  0  0  0  0
   -3.9576    0.8033   -0.0000 C   0  0  0  0  0  0  0  0  0  0  0  0
   -3.9576   -3.6859   -0.0000 C   0  0  0  0  0  0  0  0  0  0  0  0
    5.6706   -3.2370   -0.0000 C   0  0  0  0  0  0  0  0  0  0  0  0
   -3.9694    2.3155   -0.0000 C   0  0  0  0  0  0  0  0  0  0  0  0
   -5.2689    0.0709   -0.0000 C   0  0  0  0  0  0  0  0  0  0  0  0
   -5.2808    3.0834   -0.0000 C   0  0  0  0  0  0  0  0  0  0  0  0
   -6.5803    0.8270   -0.0000 C   0  0  0  0  0  0  0  0  0  0  0  0
   -6.5921    2.3391   -0.0000 C   0  0  0  0  0  0  0  0  0  0  0  0
  1  2  2  0
  2  3  1  0
  2  4  1  0
  5  3  1  6
  3  6  1  0
  4  7  1  0
  4  8  2  0
  5  9  1  0
  5 10  1  0
  6 11  1  0
  7 12  1  0
  7 13  2  0
  8 14  1  0
  9 15  1  0
 10 16  1  0
 11 17  1  0
 11 18  1  0
 12 19  1  0
 13 20  1  0
 17 21  1  0
 19 22  2  0
 19 23  1  0
 22 24  1  0
 23 25  2  0
 24 26  2  0
 14 20  2  0
 15 16  1  0
 18 21  1  0
 25 26  1  0
M  END
>  <MolRegNo>  (1) 
560763

>  <m>  (1) 
=

>  <Value>  (1) 
65

>  <Unit>  (1) 
nM

>  <Type>  (1) 
IC50

>  <pValue>  (1) 
7.19

>  <Ligand Efficiency>  (1) 
0

>  <Binding Efficiency>  (1) 
0

>  <Surface Efficiency>  (1) 
0

>  <Assay Index>  (1) 
427125

>  <Assay Category>  (1) 


>  <Assay Organism>  (1) 


>  <Target ID>  (1) 
11365

>  <Target Name>  (1) 
Cytochrome P450 2D6

>  <Target Organism>  (1) 
Homo sapiens

>  <Target Description>  (1) 
Target is a single protein chain

>  <Sequence Accession>  (1) 
P10635

>  <Reference>  (1) 
Bioorg Med Chem Lett 19 (16), 4579-4583 (2009)

>  <Pubmed ID>  (1) 
19616432

>  <DOI>  (1) 
10.1016/j.bmcl.2009.06.096

$$$$
