4wnv_ligand_341
     RDKit          2D

 33 35  0  0  1  0  0  0  0  0999 V2000
    0.0000   -0.0000   -0.0000 S   0  0  0  0  0  0  0  0  0  0  0  0
    1.4905    0.0119   -0.0000 O   0  0  0  0  0  0  0  0  0  0  0  0
   -1.5143   -0.0000   -0.0000 O   0  0  0  0  0  0  0  0  0  0  0  0
   -0.0119   -1.4905   -0.0000 N   0  0  0  0  0  0  0  0  0  0  0  0
   -0.0238    1.5262   -0.0000 C   0  0  0  0  0  0  0  0  0  0  0  0
    1.2758   -2.2297   -0.0000 C   0  0  0  0  0  0  0  0  0  0  0  0
    2.5636   -1.4666   -0.0000 C   0  0  0  0  0  0  0  0  0  0  0  0
    1.2639   -3.7321   -0.0000 C   0  0  0  0  0  0  0  0  0  0  0  0
    3.8514   -2.2059   -0.0000 C   0  0  0  0  0  0  0  0  0  0  0  0
    2.5517   -4.4714   -0.0000 C   0  0  0  0  0  0  0  0  0  0  0  0
    3.8394   -3.6964   -0.0000 C   0  0  0  0  0  0  0  0  0  0  0  0
    5.1272   -4.4356   -0.0000 N   0  0  0  0  0  0  0  0  0  0  0  0
    6.4150   -3.6725   -0.0000 C   0  0  0  0  0  0  0  0  0  0  0  0
    6.4030   -2.1582   -0.0000 O   0  0  0  0  0  0  0  0  0  0  0  0
    7.7027   -4.4118   -0.0000 C   0  0  0  0  0  0  0  0  0  0  0  0
    8.9905   -3.6487   -0.0000 C   0  0  0  0  0  0  0  0  0  0  0  0
    8.9786   -2.1343   -0.0000 O   0  0  0  0  0  0  0  0  0  0  0  0
   10.2783   -4.3879   -0.0000 N   0  0  0  0  0  0  0  0  0  0  0  0
   11.5660   -3.6248   -0.0000 C   0  0  0  0  0  0  0  0  0  0  0  0
   10.2663   -5.8784   -0.0000 C   0  0  0  0  0  0  0  0  0  0  0  0
   11.5541   -2.1105   -0.0000 C   0  0  0  0  0  0  0  0  0  0  0  0
   12.8538   -4.3641   -0.0000 C   0  0  0  0  0  0  0  0  0  0  0  0
   10.2425   -1.3474   -0.0000 C   0  0  0  0  0  0  0  0  0  0  0  0
   12.8538   -1.3474   -0.0000 C   0  0  0  0  0  0  0  0  0  0  0  0
   14.1416   -3.6010   -0.0000 N   0  0  0  0  0  0  0  0  0  0  0  0
   10.2306    0.1669   -0.0000 C   0  0  0  0  0  0  0  0  0  0  0  0
   12.8419    0.1789   -0.0000 C   0  0  0  0  0  0  0  0  0  0  0  0
   15.5009   -4.1972   -0.0000 C   0  0  0  0  0  0  0  0  0  0  0  0
   14.2846   -2.0867   -0.0000 C   0  0  0  0  0  0  0  0  0  0  0  0
   11.5183    0.9301   -0.0000 C   0  0  0  0  0  0  0  0  0  0  0  0
   16.4905   -3.0644   -0.0000 C   0  0  0  0  0  0  0  0  0  0  0  0
   15.7393   -1.7647   -0.0000 C   0  0  0  0  0  0  0  0  0  0  0  0
   17.9691   -3.2075   -0.0000 O   0  0  0  0  0  0  0  0  0  0  0  0
  1  2  2  0
  1  3  2  0
  1  4  1  0
  1  5  1  0
  4  6  1  0
  6  7  2  0
  6  8  1  0
  7  9  1  0
  8 10  2  0
  9 11  2  0
 11 12  1  0
 12 13  1  0
 13 14  2  0
 13 15  1  0
 15 16  1  0
 16 17  2  0
 16 18  1  0
 19 18  1  0
 18 20  1  0
 19 21  1  0
 19 22  1  1
 21 23  2  0
 21 24  1  0
 22 25  1  0
 23 26  1  0
 24 27  2  0
 25 28  1  0
 25 29  1  0
 26 30  2  0
 28 31  1  0
 29 32  1  0
 31 33  1  6
 10 11  1  0
 27 30  1  0
 31 32  1  0
M  END
>  <MolRegNo>  (1) 
384326

>  <m>  (1) 
=

>  <Value>  (1) 
10000

>  <Unit>  (1) 
nM

>  <Type>  (1) 
IC50

>  <pValue>  (1) 
5

>  <Ligand Efficiency>  (1) 
0

>  <Binding Efficiency>  (1) 
0

>  <Surface Efficiency>  (1) 
0

>  <Assay Index>  (1) 
287299

>  <Assay Category>  (1) 


>  <Assay Organism>  (1) 


>  <Target ID>  (1) 
11365

>  <Target Name>  (1) 
Cytochrome P450 2D6

>  <Target Organism>  (1) 
Homo sapiens

>  <Target Description>  (1) 
Target is a single protein chain

>  <Sequence Accession>  (1) 
P10635

>  <Reference>  (1) 
Bioorg Med Chem Lett 17 (7), 1951-1955 (2007)

>  <Pubmed ID>  (1) 
17307360

>  <DOI>  (1) 
10.1016/j.bmcl.2007.01.053

$$$$
