4wnv_ligand_336
     RDKit          2D

 28 30  0  0  1  0  0  0  0  0999 V2000
    0.0000   -0.0000   -0.0000 S   0  0  0  0  0  0  0  0  0  0  0  0
    1.3601   -0.5965   -0.0000 C   0  0  0  0  0  0  0  0  0  0  0  0
   -1.0141   -1.1095   -0.0000 C   0  0  0  0  0  0  0  0  0  0  0  0
    1.1931   -2.0879   -0.0000 N   0  0  0  0  0  0  0  0  0  0  0  0
    2.6486    0.1670   -0.0000 N   0  0  0  0  0  0  0  0  0  0  0  0
   -0.2744   -2.3981   -0.0000 C   0  0  0  0  0  0  0  0  0  0  0  0
    3.9371   -0.5727   -0.0000 C   0  0  0  0  0  0  0  0  0  0  0  0
    3.9252   -2.0640   -0.0000 O   0  0  0  0  0  0  0  0  0  0  0  0
    5.2256    0.1909   -0.0000 C   0  0  0  0  0  0  0  0  0  0  0  0
    6.5141   -0.5488   -0.0000 C   0  0  0  0  0  0  0  0  0  0  0  0
    7.8026    0.2148   -0.0000 C   0  0  0  0  0  0  0  0  0  0  0  0
    7.7907    1.7299   -0.0000 O   0  0  0  0  0  0  0  0  0  0  0  0
    9.0911   -0.5249   -0.0000 N   0  0  0  0  0  0  0  0  0  0  0  0
   10.3796    0.2386   -0.0000 C   0  0  0  0  0  0  0  0  0  0  0  0
    9.0792   -2.0163   -0.0000 C   0  0  0  0  0  0  0  0  0  0  0  0
   10.3677    1.7538   -0.0000 C   0  0  0  0  0  0  0  0  0  0  0  0
   11.6681   -0.5011   -0.0000 C   0  0  0  0  0  0  0  0  0  0  0  0
    9.0553    2.5174   -0.0000 C   0  0  0  0  0  0  0  0  0  0  0  0
   11.6681    2.5174   -0.0000 C   0  0  0  0  0  0  0  0  0  0  0  0
   12.9566    0.2625   -0.0000 N   0  0  0  0  0  0  0  0  0  0  0  0
    9.0434    4.0325   -0.0000 C   0  0  0  0  0  0  0  0  0  0  0  0
   11.6562    4.0445   -0.0000 C   0  0  0  0  0  0  0  0  0  0  0  0
   14.3167   -0.3341   -0.0000 C   0  0  0  0  0  0  0  0  0  0  0  0
   13.0998    1.7777   -0.0000 C   0  0  0  0  0  0  0  0  0  0  0  0
   10.3319    4.7961   -0.0000 C   0  0  0  0  0  0  0  0  0  0  0  0
   15.3070    0.7994   -0.0000 C   0  0  0  0  0  0  0  0  0  0  0  0
   14.5553    2.0998   -0.0000 C   0  0  0  0  0  0  0  0  0  0  0  0
   16.7864    0.6562   -0.0000 O   0  0  0  0  0  0  0  0  0  0  0  0
  1  2  1  0
  1  3  1  0
  2  4  2  0
  2  5  1  0
  3  6  2  0
  5  7  1  0
  7  8  2  0
  7  9  1  0
  9 10  1  0
 10 11  1  0
 11 12  2  0
 11 13  1  0
 14 13  1  0
 13 15  1  0
 14 16  1  0
 14 17  1  1
 16 18  2  0
 16 19  1  0
 17 20  1  0
 18 21  1  0
 19 22  2  0
 20 23  1  0
 20 24  1  0
 21 25  2  0
 23 26  1  0
 24 27  1  0
 26 28  1  6
  4  6  1  0
 22 25  1  0
 26 27  1  0
M  END
>  <MolRegNo>  (1) 
384336

>  <m>  (1) 
=

>  <Value>  (1) 
3400

>  <Unit>  (1) 
nM

>  <Type>  (1) 
IC50

>  <pValue>  (1) 
5.47

>  <Ligand Efficiency>  (1) 
0

>  <Binding Efficiency>  (1) 
0

>  <Surface Efficiency>  (1) 
0

>  <Assay Index>  (1) 
287299

>  <Assay Category>  (1) 


>  <Assay Organism>  (1) 


>  <Target ID>  (1) 
11365

>  <Target Name>  (1) 
Cytochrome P450 2D6

>  <Target Organism>  (1) 
Homo sapiens

>  <Target Description>  (1) 
Target is a single protein chain

>  <Sequence Accession>  (1) 
P10635

>  <Reference>  (1) 
Bioorg Med Chem Lett 17 (7), 1951-1955 (2007)

>  <Pubmed ID>  (1) 
17307360

>  <DOI>  (1) 
10.1016/j.bmcl.2007.01.053

$$$$
