4wnv_ligand_963
     RDKit          2D

 21 23  0  0  0  0  0  0  0  0999 V2000
    0.0000   -0.0000   -0.0000 O   0  0  0  0  0  0  0  0  0  0  0  0
    0.0000    1.4894   -0.0000 C   0  0  0  0  0  0  0  0  0  0  0  0
   -1.2709   -0.6950   -0.0000 C   0  0  0  0  0  0  0  0  0  0  0  0
    1.2312    2.2440   -0.0000 C   0  0  0  0  0  0  0  0  0  0  0  0
   -1.2709    2.2440   -0.0000 C   0  0  0  0  0  0  0  0  0  0  0  0
   -1.3106   -2.1248   -0.0000 C   0  0  0  0  0  0  0  0  0  0  0  0
    2.4823    1.5291   -0.0000 N   0  0  0  0  0  0  0  0  0  0  0  0
    1.2113    3.7333   -0.0000 N   0  0  0  0  0  0  0  0  0  0  0  0
   -1.2908    3.7333   -0.0000 C   0  0  0  0  0  0  0  0  0  0  0  0
   -2.6213   -2.8199   -0.0000 C   0  0  0  0  0  0  0  0  0  0  0  0
   -0.0993   -2.8397   -0.0000 C   0  0  0  0  0  0  0  0  0  0  0  0
    3.7333    2.2837   -0.0000 C   0  0  0  0  0  0  0  0  0  0  0  0
    3.7135    3.7532   -0.0000 C   0  0  0  0  0  0  0  0  0  0  0  0
   -0.0794    4.4879   -0.0000 C   0  0  0  0  0  0  0  0  0  0  0  0
   -2.6411   -4.2496   -0.0000 C   0  0  0  0  0  0  0  0  0  0  0  0
   -0.1191   -4.2894   -0.0000 C   0  0  0  0  0  0  0  0  0  0  0  0
    4.9844    1.5688   -0.0000 C   0  0  0  0  0  0  0  0  0  0  0  0
    4.9645    4.5276   -0.0000 C   0  0  0  0  0  0  0  0  0  0  0  0
   -1.4099   -4.9645   -0.0000 C   0  0  0  0  0  0  0  0  0  0  0  0
    6.2156    3.8326   -0.0000 C   0  0  0  0  0  0  0  0  0  0  0  0
    7.4667    3.1177   -0.0000 N   0  0  0  0  0  0  0  0  0  0  0  0
  1  2  1  0
  1  3  1  0
  2  4  1  0
  2  5  2  0
  3  6  1  0
  4  7  2  0
  4  8  1  0
  5  9  1  0
  6 10  2  0
  6 11  1  0
  7 12  1  0
  8 13  1  0
  8 14  1  0
 10 15  1  0
 11 16  2  0
 12 17  1  0
 13 18  1  0
 15 19  2  0
 18 20  1  0
 20 21  3  0
  9 14  2  0
 12 13  2  0
 16 19  1  0
M  END
>  <MolRegNo>  (1) 
69747

>  <m>  (1) 
=

>  <Value>  (1) 
82000

>  <Unit>  (1) 
nM

>  <Type>  (1) 
IC50

>  <pValue>  (1) 
4.09

>  <Ligand Efficiency>  (1) 
0

>  <Binding Efficiency>  (1) 
0

>  <Surface Efficiency>  (1) 
0

>  <Assay Index>  (1) 
464697

>  <Assay Category>  (1) 


>  <Assay Organism>  (1) 


>  <Target ID>  (1) 
11365

>  <Target Name>  (1) 
Cytochrome P450 2D6

>  <Target Organism>  (1) 
Homo sapiens

>  <Target Description>  (1) 
Target is a single protein chain

>  <Sequence Accession>  (1) 
P10635

>  <Reference>  (1) 
Bioorg Med Chem Lett 19 (23), 6813-6817 (2009)

>  <Pubmed ID>  (1) 
19846298

>  <DOI>  (1) 
10.1016/j.bmcl.2009.07.002

$$$$
