4wnv_ligand_597
     RDKit          2D

 42 45  0  0  0  0  0  0  0  0999 V2000
    0.0000   -0.0000   -0.0000 F   0  0  0  0  0  0  0  0  0  0  0  0
   -0.0245   -1.2364   -0.0000 C   0  0  0  0  0  0  0  0  0  0  0  0
    1.3098   -2.0076   -0.0000 C   0  0  0  0  0  0  0  0  0  0  0  0
   -1.3833   -1.9953   -0.0000 C   0  0  0  0  0  0  0  0  0  0  0  0
    2.6441   -1.2241   -0.0000 N   0  0  0  0  0  0  0  0  0  0  0  0
    1.2853   -3.5500   -0.0000 C   0  0  0  0  0  0  0  0  0  0  0  0
   -2.7420   -1.1996   -0.0000 C   0  0  0  0  0  0  0  0  0  0  0  0
   -1.4077   -3.5377   -0.0000 C   0  0  0  0  0  0  0  0  0  0  0  0
    4.0274   -1.8607   -0.0000 C   0  0  0  0  0  0  0  0  0  0  0  0
    2.7788    0.3183   -0.0000 C   0  0  0  0  0  0  0  0  0  0  0  0
   -0.0734   -4.3089   -0.0000 C   0  0  0  0  0  0  0  0  0  0  0  0
   -2.7543    0.0612   -0.0000 O   0  0  0  0  0  0  0  0  0  0  0  0
   -4.1008   -1.9586   -0.0000 N   0  0  0  0  0  0  0  0  0  0  0  0
    4.2599   -3.0725   -0.0000 O   0  0  0  0  0  0  0  0  0  0  0  0
    5.0556   -0.6977   -0.0000 C   0  0  0  0  0  0  0  0  0  0  0  0
    4.2844    0.6488   -0.0000 C   0  0  0  0  0  0  0  0  0  0  0  0
   -0.0979   -5.8513   -0.0000 N   0  0  0  0  0  0  0  0  0  0  0  0
   -5.4596   -1.1629   -0.0000 C   0  0  0  0  0  0  0  0  0  0  0  0
   -1.4567   -6.6103   -0.0000 C   0  0  0  0  0  0  0  0  0  0  0  0
   -6.8184   -1.9219   -0.0000 C   0  0  0  0  0  0  0  0  0  0  0  0
   -5.4718    0.4040   -0.0000 C   0  0  0  0  0  0  0  0  0  0  0  0
   -1.4812   -7.8466   -0.0000 C   0  0  0  0  0  0  0  0  0  0  0  0
   -6.8306   -3.1582   -0.0000 O   0  0  0  0  0  0  0  0  0  0  0  0
   -8.1771   -1.1262   -0.0000 C   0  0  0  0  0  0  0  0  0  0  0  0
   -6.8306    1.1996   -0.0000 C   0  0  0  0  0  0  0  0  0  0  0  0
   -9.5359   -1.8851   -0.0000 N   0  0  0  0  0  0  0  0  0  0  0  0
   -8.1894    0.4407   -0.0000 C   0  0  0  0  0  0  0  0  0  0  0  0
   -6.8428    2.7665   -0.0000 C   0  0  0  0  0  0  0  0  0  0  0  0
  -10.8947   -1.0895   -0.0000 C   0  0  0  0  0  0  0  0  0  0  0  0
   -9.5481    1.2241   -0.0000 C   0  0  0  0  0  0  0  0  0  0  0  0
   -8.2016    3.5500   -0.0000 C   0  0  0  0  0  0  0  0  0  0  0  0
  -12.2535   -1.8484   -0.0000 C   0  0  0  0  0  0  0  0  0  0  0  0
   -9.5604    2.7910   -0.0000 C   0  0  0  0  0  0  0  0  0  0  0  0
  -12.2657   -3.3908   -0.0000 C   0  0  0  0  0  0  0  0  0  0  0  0
  -13.6122   -1.0527   -0.0000 C   0  0  0  0  0  0  0  0  0  0  0  0
  -13.6245   -4.1498   -0.0000 C   0  0  0  0  0  0  0  0  0  0  0  0
  -14.9710   -1.8117   -0.0000 C   0  0  0  0  0  0  0  0  0  0  0  0
  -14.9832   -3.3541   -0.0000 C   0  0  0  0  0  0  0  0  0  0  0  0
  -13.6367   -5.6922   -0.0000 C   0  0  0  0  0  0  0  0  0  0  0  0
  -14.7262   -6.3042   -0.0000 F   0  0  0  0  0  0  0  0  0  0  0  0
  -12.5717   -6.3042   -0.0000 F   0  0  0  0  0  0  0  0  0  0  0  0
  -13.6489   -6.9285   -0.0000 F   0  0  0  0  0  0  0  0  0  0  0  0
  1  2  1  0
  2  3  2  0
  2  4  1  0
  3  5  1  0
  3  6  1  0
  4  7  1  0
  4  8  2  0
  5  9  1  0
  5 10  1  0
  6 11  2  0
  7 12  2  0
  7 13  1  0
  9 14  2  0
  9 15  1  0
 10 16  1  0
 11 17  1  0
 18 13  1  0
 17 19  1  0
 18 20  1  0
 18 21  1  1
 19 22  1  0
 20 23  1  1
 20 24  1  0
 21 25  1  0
 24 26  1  0
 25 27  2  0
 25 28  1  0
 26 29  1  0
 27 30  1  0
 28 31  2  0
 29 32  1  0
 30 33  2  0
 32 34  2  0
 32 35  1  0
 34 36  1  0
 35 37  2  0
 36 38  2  0
 36 39  1  0
 39 40  1  0
 39 41  1  0
 39 42  1  0
  8 11  1  0
 15 16  1  0
 31 33  1  0
 37 38  1  0
M  END
>  <MolRegNo>  (1) 
523412

>  <m>  (1) 
=

>  <Value>  (1) 
11000

>  <Unit>  (1) 
nM

>  <Type>  (1) 
IC50

>  <pValue>  (1) 
4.96

>  <Ligand Efficiency>  (1) 
0

>  <Binding Efficiency>  (1) 
0

>  <Surface Efficiency>  (1) 
0

>  <Assay Index>  (1) 
395025

>  <Assay Category>  (1) 


>  <Assay Organism>  (1) 


>  <Target ID>  (1) 
11365

>  <Target Name>  (1) 
Cytochrome P450 2D6

>  <Target Organism>  (1) 
Homo sapiens

>  <Target Description>  (1) 
Target is a single protein chain

>  <Sequence Accession>  (1) 
P10635

>  <Reference>  (1) 
Bioorg Med Chem Lett 19 (13), 3664-3668 (2009)

>  <Pubmed ID>  (1) 
19428244

>  <DOI>  (1) 
10.1016/j.bmcl.2009.03.165

$$$$
