4wnv_ligand_77
     RDKit          2D

 21 23  0  0  0  0  0  0  0  0999 V2000
    0.0000   -0.0000   -0.0000 O   0  0  0  0  0  0  0  0  0  0  0  0
    1.2632    0.7792   -0.0000 C   0  0  0  0  0  0  0  0  0  0  0  0
   -1.3223    0.7438   -0.0000 C   0  0  0  0  0  0  0  0  0  0  0  0
    2.5737    0.0472   -0.0000 C   0  0  0  0  0  0  0  0  0  0  0  0
    1.2278    2.2904   -0.0000 C   0  0  0  0  0  0  0  0  0  0  0  0
   -2.6327   -0.0118   -0.0000 C   0  0  0  0  0  0  0  0  0  0  0  0
    3.8487    0.8264   -0.0000 C   0  0  0  0  0  0  0  0  0  0  0  0
    2.5147    3.0577   -0.0000 C   0  0  0  0  0  0  0  0  0  0  0  0
   -3.9432    0.7320   -0.0000 C   0  0  0  0  0  0  0  0  0  0  0  0
    3.8133    2.3258   -0.0000 C   0  0  0  0  0  0  0  0  0  0  0  0
   -5.2537   -0.0236   -0.0000 C   0  0  0  0  0  0  0  0  0  0  0  0
    5.0766    3.1050   -0.0000 N   0  0  0  0  0  0  0  0  0  0  0  0
   -5.2419   -1.4994   -0.0000 N   0  0  0  0  0  0  0  0  0  0  0  0
   -6.5641    0.7320   -0.0000 C   0  0  0  0  0  0  0  0  0  0  0  0
    5.2064    4.6161   -0.0000 C   0  0  0  0  0  0  0  0  0  0  0  0
    6.4461    2.5265   -0.0000 C   0  0  0  0  0  0  0  0  0  0  0  0
   -6.5287   -2.2549   -0.0000 C   0  0  0  0  0  0  0  0  0  0  0  0
   -7.8628   -0.0236   -0.0000 C   0  0  0  0  0  0  0  0  0  0  0  0
    6.6586    4.9585   -0.0000 N   0  0  0  0  0  0  0  0  0  0  0  0
    7.4142    3.6599   -0.0000 C   0  0  0  0  0  0  0  0  0  0  0  0
   -7.8628   -1.5112   -0.0000 C   0  0  0  0  0  0  0  0  0  0  0  0
  1  2  1  0
  1  3  1  0
  2  4  2  0
  2  5  1  0
  3  6  1  0
  4  7  1  0
  5  8  2  0
  6  9  1  0
  7 10  2  0
  9 11  1  0
 10 12  1  0
 11 13  2  0
 11 14  1  0
 12 15  1  0
 12 16  1  0
 13 17  1  0
 14 18  2  0
 15 19  2  0
 16 20  2  0
 17 21  2  0
  8 10  1  0
 18 21  1  0
 19 20  1  0
M  END
>  <MolRegNo>  (1) 
185908

>  <m>  (1) 
=

>  <Value>  (1) 
620

>  <Unit>  (1) 
nM

>  <Type>  (1) 
IC50

>  <pValue>  (1) 
6.21

>  <Ligand Efficiency>  (1) 
0

>  <Binding Efficiency>  (1) 
0

>  <Surface Efficiency>  (1) 
0

>  <Assay Index>  (1) 
51639

>  <Assay Category>  (1) 


>  <Assay Organism>  (1) 
Homo sapiens

>  <Target ID>  (1) 
11365

>  <Target Name>  (1) 
Cytochrome P450 2D6

>  <Target Organism>  (1) 
Homo sapiens

>  <Target Description>  (1) 
Target is a single protein chain

>  <Sequence Accession>  (1) 
P10635

>  <Reference>  (1) 
Bioorg Med Chem Lett 14 (2), 333-336 (2004)

>  <Pubmed ID>  (1) 
14698153

>  <DOI>  (1) 
10.1016/j.bmcl.2003.11.005

$$$$
