4wnv_ligand_427
     RDKit          2D

 40 44  0  0  1  0  0  0  0  0999 V2000
    0.0000   -0.0000   -0.0000 S   0  0  0  0  0  0  0  0  0  0  0  0
    1.2036    0.8938   -0.0000 C   0  0  0  0  0  0  0  0  0  0  0  0
    0.4528   -1.4181   -0.0000 C   0  0  0  0  0  0  0  0  0  0  0  0
    2.4072    0.0238   -0.0000 N   0  0  0  0  0  0  0  0  0  0  0  0
    1.1917    2.4072   -0.0000 N   0  0  0  0  0  0  0  0  0  0  0  0
    1.9424   -1.4062   -0.0000 C   0  0  0  0  0  0  0  0  0  0  0  0
   -0.3337   -2.6813   -0.0000 C   0  0  0  0  0  0  0  0  0  0  0  0
   -0.1192    3.1818   -0.0000 C   0  0  0  0  0  0  0  0  0  0  0  0
    2.8123   -2.5978   -0.0000 C   0  0  0  0  0  0  0  0  0  0  0  0
   -1.8471   -2.6455   -0.0000 O   0  0  0  0  0  0  0  0  0  0  0  0
    0.3813   -3.9802   -0.0000 C   0  0  0  0  0  0  0  0  0  0  0  0
   -1.4300    2.4429   -0.0000 O   0  0  0  0  0  0  0  0  0  0  0  0
   -0.1311    4.6952   -0.0000 N   0  0  0  0  0  0  0  0  0  0  0  0
   -1.4419    5.4579   -0.0000 C   0  0  0  0  0  0  0  0  0  0  0  0
   -1.4538    6.9713   -0.0000 C   0  0  0  0  0  0  0  0  0  0  0  0
   -2.7528    4.7309   -0.0000 C   0  0  0  0  0  0  0  0  0  0  0  0
   -2.7647    7.7459   -0.0000 C   0  0  0  0  0  0  0  0  0  0  0  0
   -0.1549    7.7340   -0.0000 C   0  0  0  0  0  0  0  0  0  0  0  0
   -4.0636    5.4817   -0.0000 N   0  0  0  0  0  0  0  0  0  0  0  0
   -4.0755    6.9951   -0.0000 C   0  0  0  0  0  0  0  0  0  0  0  0
    1.1321    6.9832   -0.0000 N   0  0  0  0  0  0  0  0  0  0  0  0
   -5.3744    4.7429   -0.0000 C   0  0  0  0  0  0  0  0  0  0  0  0
    2.4191    7.7459   -0.0000 C   0  0  0  0  0  0  0  0  0  0  0  0
    1.1202    5.4817   -0.0000 C   0  0  0  0  0  0  0  0  0  0  0  0
   -6.6734    5.5055   -0.0000 C   0  0  0  0  0  0  0  0  0  0  0  0
    3.7061    6.9951   -0.0000 C   0  0  0  0  0  0  0  0  0  0  0  0
    2.4072    4.7429   -0.0000 C   0  0  0  0  0  0  0  0  0  0  0  0
   -8.0557    4.9097   -0.0000 O   0  0  0  0  0  0  0  0  0  0  0  0
   -6.8283    7.0070   -0.0000 C   0  0  0  0  0  0  0  0  0  0  0  0
    3.6823    5.5055   -0.0000 C   0  0  0  0  0  0  0  0  0  0  0  0
    5.0050    7.7578   -0.0000 C   0  0  0  0  0  0  0  0  0  0  0  0
   -9.0567    6.0418   -0.0000 C   0  0  0  0  0  0  0  0  0  0  0  0
   -8.2821    7.3526   -0.0000 C   0  0  0  0  0  0  0  0  0  0  0  0
    6.2920    7.0070   -0.0000 C   0  0  0  0  0  0  0  0  0  0  0  0
    6.2563    5.5174   -0.0000 C   0  0  0  0  0  0  0  0  0  0  0  0
    7.5790    7.7697   -0.0000 C   0  0  0  0  0  0  0  0  0  0  0  0
    7.5433    4.7786   -0.0000 C   0  0  0  0  0  0  0  0  0  0  0  0
    8.8660    7.0309   -0.0000 C   0  0  0  0  0  0  0  0  0  0  0  0
    8.8422    5.5294   -0.0000 C   0  0  0  0  0  0  0  0  0  0  0  0
   10.1292    4.7905   -0.0000 F   0  0  0  0  0  0  0  0  0  0  0  0
  1  2  1  0
  1  3  1  0
  2  4  2  0
  2  5  1  0
  3  6  2  0
  3  7  1  0
  5  8  1  0
  6  9  1  0
  7 10  2  0
  7 11  1  0
  8 12  2  0
  8 13  1  0
 14 13  1  6
 14 15  1  0
 14 16  1  0
 15 17  1  0
 15 18  1  1
 16 19  1  0
 17 20  1  0
 18 21  1  0
 19 22  1  0
 21 23  1  0
 21 24  1  0
 22 25  1  0
 23 26  1  0
 24 27  1  0
 25 28  1  0
 25 29  2  0
 26 30  1  0
 26 31  1  6
 28 32  1  0
 29 33  1  0
 31 34  1  0
 34 35  2  0
 34 36  1  0
 35 37  1  0
 36 38  2  0
 37 39  2  0
 39 40  1  0
  4  6  1  0
 19 20  1  0
 27 30  1  0
 32 33  2  0
 38 39  1  0
M  END
>  <MolRegNo>  (1) 
421519

>  <m>  (1) 
=

>  <Value>  (1) 
170

>  <Unit>  (1) 
nM

>  <Type>  (1) 
IC50

>  <pValue>  (1) 
6.77

>  <Ligand Efficiency>  (1) 
0

>  <Binding Efficiency>  (1) 
0

>  <Surface Efficiency>  (1) 
0

>  <Assay Index>  (1) 
307824

>  <Assay Category>  (1) 


>  <Assay Organism>  (1) 
Homo sapiens

>  <Target ID>  (1) 
11365

>  <Target Name>  (1) 
Cytochrome P450 2D6

>  <Target Organism>  (1) 
Homo sapiens

>  <Target Description>  (1) 
Target is a single protein chain

>  <Sequence Accession>  (1) 
P10635

>  <Reference>  (1) 
Bioorg Med Chem Lett 17 (11), 2992-2997 (2007)

>  <Pubmed ID>  (1) 
17418570

>  <DOI>  (1) 
10.1016/j.bmcl.2007.03.065

$$$$
