4wnv_ligand_507
     RDKit          2D

 37 41  0  0  1  0  0  0  0  0999 V2000
    0.0000   -0.0000   -0.0000 F   0  0  0  0  0  0  0  0  0  0  0  0
    1.4926   -0.0000   -0.0000 C   0  0  0  0  0  0  0  0  0  0  0  0
    2.2271   -1.2913   -0.0000 C   0  0  0  0  0  0  0  0  0  0  0  0
    2.2390    1.3031   -0.0000 C   0  0  0  0  0  0  0  0  0  0  0  0
    3.7198   -1.2913   -0.0000 C   0  0  0  0  0  0  0  0  0  0  0  0
    3.7198    1.3149   -0.0000 C   0  0  0  0  0  0  0  0  0  0  0  0
    4.4661    0.0237   -0.0000 C   0  0  0  0  0  0  0  0  0  0  0  0
    5.9587    0.0355   -0.0000 C   0  0  0  0  0  0  0  0  0  0  0  0
    6.7050    1.3505   -0.0000 C   0  0  0  0  0  0  0  0  0  0  0  0
    8.1977    1.3623   -0.0000 C   0  0  0  0  0  0  0  0  0  0  0  0
    5.9350    2.6654   -0.0000 C   0  0  0  0  0  0  0  0  0  0  0  0
    8.9440    2.6654   -0.0000 N   0  0  0  0  0  0  0  0  0  0  0  0
    6.6814    3.9804   -0.0000 C   0  0  0  0  0  0  0  0  0  0  0  0
    8.1858    3.9804   -0.0000 C   0  0  0  0  0  0  0  0  0  0  0  0
   10.4367    2.6654   -0.0000 C   0  0  0  0  0  0  0  0  0  0  0  0
   11.1711    1.3742   -0.0000 C   0  0  0  0  0  0  0  0  0  0  0  0
   12.6638    1.3742   -0.0000 C   0  0  0  0  0  0  0  0  0  0  0  0
   13.4101    2.6891   -0.0000 N   0  0  0  0  0  0  0  0  0  0  0  0
   14.9027    2.6891   -0.0000 C   0  0  0  0  0  0  0  0  0  0  0  0
   15.6372    1.3979   -0.0000 O   0  0  0  0  0  0  0  0  0  0  0  0
   15.6491    4.0041   -0.0000 N   0  0  0  0  0  0  0  0  0  0  0  0
   17.1417    4.0041   -0.0000 C   0  0  0  0  0  0  0  0  0  0  0  0
   17.8643    2.7128   -0.0000 C   0  0  0  0  0  0  0  0  0  0  0  0
   17.8762    5.3190   -0.0000 C   0  0  0  0  0  0  0  0  0  0  0  0
   19.3570    2.7128   -0.0000 C   0  0  0  0  0  0  0  0  0  0  0  0
   19.3688    5.3309   -0.0000 C   0  0  0  0  0  0  0  0  0  0  0  0
   20.1033    1.4216   -0.0000 N   0  0  0  0  0  0  0  0  0  0  0  0
   20.1033    4.0278   -0.0000 C   0  0  0  0  0  0  0  0  0  0  0  0
   20.1151    6.6458   -0.0000 N   0  0  0  0  0  0  0  0  0  0  0  0
   19.4873    0.0592   -0.0000 N   0  0  0  0  0  0  0  0  0  0  0  0
   21.5959    1.2794   -0.0000 C   0  0  0  0  0  0  0  0  0  0  0  0
   19.4873    8.0437   -0.0000 N   0  0  0  0  0  0  0  0  0  0  0  0
   21.5959    6.8235   -0.0000 C   0  0  0  0  0  0  0  0  0  0  0  0
   20.6008   -0.9359   -0.0000 C   0  0  0  0  0  0  0  0  0  0  0  0
   21.9039   -0.1777   -0.0000 C   0  0  0  0  0  0  0  0  0  0  0  0
   20.6008    9.0625   -0.0000 C   0  0  0  0  0  0  0  0  0  0  0  0
   21.9039    8.3043   -0.0000 C   0  0  0  0  0  0  0  0  0  0  0  0
  1  2  1  0
  2  3  2  0
  2  4  1  0
  3  5  1  0
  4  6  2  0
  5  7  2  0
  7  8  1  0
  9  8  1  6
  9 10  1  0
  9 11  1  0
 10 12  1  0
 11 13  1  0
 12 14  1  0
 12 15  1  0
 15 16  1  0
 16 17  1  0
 17 18  1  0
 18 19  1  0
 19 20  2  0
 19 21  1  0
 21 22  1  0
 22 23  2  0
 22 24  1  0
 23 25  1  0
 24 26  2  0
 25 27  1  0
 25 28  2  0
 26 29  1  0
 27 30  1  0
 27 31  1  0
 29 32  1  0
 29 33  1  0
 30 34  2  0
 31 35  2  0
 32 36  2  0
 33 37  2  0
  6  7  1  0
 13 14  1  0
 26 28  1  0
 34 35  1  0
 36 37  1  0
M  END
>  <MolRegNo>  (1) 
438316

>  <m>  (1) 
=

>  <Value>  (1) 
2800

>  <Unit>  (1) 
nM

>  <Type>  (1) 
IC50

>  <pValue>  (1) 
5.55

>  <Ligand Efficiency>  (1) 
0

>  <Binding Efficiency>  (1) 
0

>  <Surface Efficiency>  (1) 
0

>  <Assay Index>  (1) 
314783

>  <Assay Category>  (1) 


>  <Assay Organism>  (1) 


>  <Target ID>  (1) 
11365

>  <Target Name>  (1) 
Cytochrome P450 2D6

>  <Target Organism>  (1) 
Homo sapiens

>  <Target Description>  (1) 
Target is a single protein chain

>  <Sequence Accession>  (1) 
P10635

>  <Reference>  (1) 
Bioorg Med Chem Lett 18 (2), 576-585 (2008)

>  <Pubmed ID>  (1) 
18096386

>  <DOI>  (1) 
10.1016/j.bmcl.2007.11.067

$$$$
