4wnv_ligand_406
     RDKit          2D

 21 23  0  0  1  0  0  0  0  0999 V2000
    0.0000   -0.0000   -0.0000 O   0  0  0  0  0  0  0  0  0  0  0  0
    1.2970    0.7616   -0.0000 C   0  0  0  0  0  0  0  0  0  0  0  0
   -0.0119   -1.4993   -0.0000 C   0  0  0  0  0  0  0  0  0  0  0  0
    2.5821    0.0238   -0.0000 C   0  0  0  0  0  0  0  0  0  0  0  0
    1.2851   -2.2490   -0.0000 C   0  0  0  0  0  0  0  0  0  0  0  0
    2.5702   -1.4755   -0.0000 C   0  0  0  0  0  0  0  0  0  0  0  0
    3.8672   -2.2133   -0.0000 N   0  0  0  0  0  0  0  0  0  0  0  0
    5.1643   -1.4517   -0.0000 C   0  0  0  0  0  0  0  0  0  0  0  0
    3.8553   -3.7126   -0.0000 C   0  0  0  0  0  0  0  0  0  0  0  0
    5.3071    0.0595   -0.0000 C   0  0  0  0  0  0  0  0  0  0  0  0
    6.5327   -2.0586   -0.0000 C   0  0  0  0  0  0  0  0  0  0  0  0
    5.1524   -4.4503   -0.0000 C   0  0  0  0  0  0  0  0  0  0  0  0
    6.7707    0.3808   -0.0000 N   0  0  0  0  0  0  0  0  0  0  0  0
    7.5322   -0.9281   -0.0000 C   0  0  0  0  0  0  0  0  0  0  0  0
    5.1405   -5.9496   -0.0000 C   0  0  0  0  0  0  0  0  0  0  0  0
    6.4375   -3.6888   -0.0000 C   0  0  0  0  0  0  0  0  0  0  0  0
    6.4375   -6.6874   -0.0000 C   0  0  0  0  0  0  0  0  0  0  0  0
    3.8197   -6.6874   -0.0000 C   0  0  0  0  0  0  0  0  0  0  0  0
    7.7345   -4.4265   -0.0000 C   0  0  0  0  0  0  0  0  0  0  0  0
    7.7345   -5.9258   -0.0000 C   0  0  0  0  0  0  0  0  0  0  0  0
    6.4256   -8.1867   -0.0000 C   0  0  0  0  0  0  0  0  0  0  0  0
  1  2  1  0
  1  3  1  0
  2  4  1  0
  3  5  1  0
  4  6  1  0
  6  7  1  0
  8  7  1  1
  7  9  1  0
  8 10  1  0
  8 11  1  0
  9 12  1  0
 10 13  1  0
 11 14  1  0
 12 15  2  0
 12 16  1  0
 15 17  1  0
 15 18  1  0
 16 19  2  0
 17 20  2  0
 17 21  1  0
  5  6  1  0
 13 14  1  0
 19 20  1  0
M  END
>  <MolRegNo>  (1) 
412778

>  <m>  (1) 
=

>  <Value>  (1) 
9400

>  <Unit>  (1) 
nM

>  <Type>  (1) 
IC50

>  <pValue>  (1) 
5.03

>  <Ligand Efficiency>  (1) 
0

>  <Binding Efficiency>  (1) 
0

>  <Surface Efficiency>  (1) 
0

>  <Assay Index>  (1) 
303145

>  <Assay Category>  (1) 


>  <Assay Organism>  (1) 
Homo sapiens

>  <Target ID>  (1) 
11365

>  <Target Name>  (1) 
Cytochrome P450 2D6

>  <Target Organism>  (1) 
Homo sapiens

>  <Target Description>  (1) 
Target is a single protein chain

>  <Sequence Accession>  (1) 
P10635

>  <Reference>  (1) 
Bioorg Med Chem Lett 17 (7), 2022-2025 (2007)

>  <Pubmed ID>  (1) 
17267217

>  <DOI>  (1) 
10.1016/j.bmcl.2007.01.020

$$$$
