4wnv_ligand_722
     RDKit          2D

 31 34  0  0  0  0  0  0  0  0999 V2000
    0.0000   -0.0000   -0.0000 F   0  0  0  0  0  0  0  0  0  0  0  0
   -1.3120   -0.7514   -0.0000 C   0  0  0  0  0  0  0  0  0  0  0  0
   -0.5606   -2.0395   -0.0000 F   0  0  0  0  0  0  0  0  0  0  0  0
   -2.0873    0.5606   -0.0000 F   0  0  0  0  0  0  0  0  0  0  0  0
   -2.6240   -1.4909   -0.0000 O   0  0  0  0  0  0  0  0  0  0  0  0
   -2.6359   -2.9818   -0.0000 C   0  0  0  0  0  0  0  0  0  0  0  0
   -1.3478   -3.7213   -0.0000 C   0  0  0  0  0  0  0  0  0  0  0  0
   -3.9479   -3.7213   -0.0000 C   0  0  0  0  0  0  0  0  0  0  0  0
   -1.3597   -5.2241   -0.0000 C   0  0  0  0  0  0  0  0  0  0  0  0
   -3.9598   -5.2241   -0.0000 C   0  0  0  0  0  0  0  0  0  0  0  0
   -0.0716   -5.9636   -0.0000 N   0  0  0  0  0  0  0  0  0  0  0  0
   -2.6836   -5.9636   -0.0000 C   0  0  0  0  0  0  0  0  0  0  0  0
    1.2166   -5.2003   -0.0000 C   0  0  0  0  0  0  0  0  0  0  0  0
    2.5047   -5.9397   -0.0000 N   0  0  0  0  0  0  0  0  0  0  0  0
    1.1927   -3.6855   -0.0000 C   0  0  0  0  0  0  0  0  0  0  0  0
    3.7928   -5.1764   -0.0000 C   0  0  0  0  0  0  0  0  0  0  0  0
    2.4809   -2.9102   -0.0000 C   0  0  0  0  0  0  0  0  0  0  0  0
    3.7809   -3.6616   -0.0000 C   0  0  0  0  0  0  0  0  0  0  0  0
    2.4570   -1.3955   -0.0000 C   0  0  0  0  0  0  0  0  0  0  0  0
    5.0691   -2.8983   -0.0000 C   0  0  0  0  0  0  0  0  0  0  0  0
    3.1846   -0.0835   -0.0000 C   0  0  0  0  0  0  0  0  0  0  0  0
    1.6817   -0.0835   -0.0000 C   0  0  0  0  0  0  0  0  0  0  0  0
    5.0571   -1.3836   -0.0000 O   0  0  0  0  0  0  0  0  0  0  0  0
    6.3572   -3.6378   -0.0000 N   0  0  0  0  0  0  0  0  0  0  0  0
    7.6453   -2.8745   -0.0000 C   0  0  0  0  0  0  0  0  0  0  0  0
    8.9335   -3.6139   -0.0000 C   0  0  0  0  0  0  0  0  0  0  0  0
    8.9215   -5.1048   -0.0000 C   0  0  0  0  0  0  0  0  0  0  0  0
   10.2097   -2.8387   -0.0000 C   0  0  0  0  0  0  0  0  0  0  0  0
   10.2097   -5.8443   -0.0000 C   0  0  0  0  0  0  0  0  0  0  0  0
   11.5097   -3.5782   -0.0000 C   0  0  0  0  0  0  0  0  0  0  0  0
   11.4978   -5.0810   -0.0000 O   0  0  0  0  0  0  0  0  0  0  0  0
  1  2  1  0
  2  3  1  0
  2  4  1  0
  2  5  1  0
  5  6  1  0
  6  7  2  0
  6  8  1  0
  7  9  1  0
  8 10  2  0
  9 11  1  0
  9 12  2  0
 11 13  1  0
 13 14  2  0
 13 15  1  0
 14 16  1  0
 15 17  2  0
 16 18  2  0
 17 19  1  0
 18 20  1  0
 19 21  1  0
 19 22  1  0
 20 23  2  0
 20 24  1  0
 24 25  1  0
 25 26  1  0
 26 27  1  0
 26 28  1  0
 27 29  1  0
 28 30  1  0
 29 31  1  0
 10 12  1  0
 17 18  1  0
 21 22  1  0
 30 31  1  0
M  END
>  <MolRegNo>  (1) 
472938

>  <m>  (1) 
=

>  <Value>  (1) 
24000

>  <Unit>  (1) 
nM

>  <Type>  (1) 
IC50

>  <pValue>  (1) 
4.62

>  <Ligand Efficiency>  (1) 
0

>  <Binding Efficiency>  (1) 
0

>  <Surface Efficiency>  (1) 
0

>  <Assay Index>  (1) 
409031

>  <Assay Category>  (1) 


>  <Assay Organism>  (1) 


>  <Target ID>  (1) 
11365

>  <Target Name>  (1) 
Cytochrome P450 2D6

>  <Target Organism>  (1) 
Homo sapiens

>  <Target Description>  (1) 
Target is a single protein chain

>  <Sequence Accession>  (1) 
P10635

>  <Reference>  (1) 
Bioorg Med Chem Lett 19 (1), 259-263 (2009)

>  <Pubmed ID>  (1) 
19010671

>  <DOI>  (1) 
10.1016/j.bmcl.2008.10.118

$$$$
