4wnv_ligand_106
     RDKit          2D

 12 13  0  0  0  0  0  0  0  0999 V2000
    0.0000   -0.0000   -0.0000 N   0  0  0  0  0  0  0  0  0  0  0  0
   -0.1681   -1.4893   -0.0000 C   0  0  0  0  0  0  0  0  0  0  0  0
    1.4412    0.3123   -0.0000 C   0  0  0  0  0  0  0  0  0  0  0  0
   -1.1410    0.9969   -0.0000 C   0  0  0  0  0  0  0  0  0  0  0  0
   -1.4773   -2.2339   -0.0000 C   0  0  0  0  0  0  0  0  0  0  0  0
    1.1890   -2.0898   -0.0000 C   0  0  0  0  0  0  0  0  0  0  0  0
    2.1859   -0.9728   -0.0000 N   0  0  0  0  0  0  0  0  0  0  0  0
   -1.4893   -3.7472   -0.0000 C   0  0  0  0  0  0  0  0  0  0  0  0
   -2.7744   -1.4893   -0.0000 C   0  0  0  0  0  0  0  0  0  0  0  0
   -2.7864   -4.4918   -0.0000 N   0  0  0  0  0  0  0  0  0  0  0  0
   -4.0955   -2.2339   -0.0000 C   0  0  0  0  0  0  0  0  0  0  0  0
   -4.1075   -3.7232   -0.0000 C   0  0  0  0  0  0  0  0  0  0  0  0
  1  2  1  0
  1  3  2  0
  1  4  1  0
  2  5  1  0
  2  6  2  0
  3  7  1  0
  5  8  2  0
  5  9  1  0
  8 10  1  0
  9 11  2  0
 10 12  2  0
  6  7  1  0
 11 12  1  0
M  CHG  1   1   1
M  END
>  <MolRegNo>  (1) 
299549

>  <m>  (1) 
=

>  <Value>  (1) 
217000

>  <Unit>  (1) 
nM

>  <Type>  (1) 
IC50

>  <pValue>  (1) 
0

>  <Ligand Efficiency>  (1) 
0

>  <Binding Efficiency>  (1) 
0

>  <Surface Efficiency>  (1) 
0

>  <Assay Index>  (1) 
238570

>  <Assay Category>  (1) 


>  <Assay Organism>  (1) 
Homo sapiens

>  <Target ID>  (1) 
11365

>  <Target Name>  (1) 
Cytochrome P450 2D6

>  <Target Organism>  (1) 
Homo sapiens

>  <Target Description>  (1) 
Target is a single protein chain

>  <Sequence Accession>  (1) 
P10635

>  <Reference>  (1) 
J Med Chem 48 (1), 224-239 (2005)

>  <Pubmed ID>  (1) 
15634016

>  <DOI>  (1) 
10.1021/jm049696n

$$$$
