4wnv_ligand_660
     RDKit          2D

 32 36  0  0  0  0  0  0  0  0999 V2000
    0.0000   -0.0000   -0.0000 F   0  0  0  0  0  0  0  0  0  0  0  0
   -0.0118    1.5064   -0.0000 C   0  0  0  0  0  0  0  0  0  0  0  0
    1.2711    2.2714   -0.0000 C   0  0  0  0  0  0  0  0  0  0  0  0
   -1.3181    2.2714   -0.0000 C   0  0  0  0  0  0  0  0  0  0  0  0
    1.2593    3.7779   -0.0000 C   0  0  0  0  0  0  0  0  0  0  0  0
   -1.3299    3.7779   -0.0000 C   0  0  0  0  0  0  0  0  0  0  0  0
   -0.0471    4.5429   -0.0000 C   0  0  0  0  0  0  0  0  0  0  0  0
   -0.0588    6.0493   -0.0000 C   0  0  0  0  0  0  0  0  0  0  0  0
    1.2240    6.8026   -0.0000 N   0  0  0  0  0  0  0  0  0  0  0  0
   -1.3652    6.8026   -0.0000 C   0  0  0  0  0  0  0  0  0  0  0  0
    1.2122    8.3090   -0.0000 C   0  0  0  0  0  0  0  0  0  0  0  0
   -1.3770    8.3090   -0.0000 C   0  0  0  0  0  0  0  0  0  0  0  0
   -2.6716    6.0729   -0.0000 C   0  0  0  0  0  0  0  0  0  0  0  0
   -0.0942    9.0740   -0.0000 N   0  0  0  0  0  0  0  0  0  0  0  0
    2.4951    9.0740   -0.0000 C   0  0  0  0  0  0  0  0  0  0  0  0
   -2.6834    9.0740   -0.0000 C   0  0  0  0  0  0  0  0  0  0  0  0
   -2.6834    4.5900   -0.0000 O   0  0  0  0  0  0  0  0  0  0  0  0
   -3.9780    6.8261   -0.0000 N   0  0  0  0  0  0  0  0  0  0  0  0
    2.4833   10.5805   -0.0000 C   0  0  0  0  0  0  0  0  0  0  0  0
    3.7779    8.3326   -0.0000 C   0  0  0  0  0  0  0  0  0  0  0  0
   -5.2843    6.0964   -0.0000 C   0  0  0  0  0  0  0  0  0  0  0  0
    3.7661   11.3455   -0.0000 C   0  0  0  0  0  0  0  0  0  0  0  0
    5.0607    9.0975   -0.0000 C   0  0  0  0  0  0  0  0  0  0  0  0
   -6.5907    6.8496   -0.0000 C   0  0  0  0  0  0  0  0  0  0  0  0
   -5.2961    4.6135   -0.0000 C   0  0  0  0  0  0  0  0  0  0  0  0
    5.0490   10.6040   -0.0000 C   0  0  0  0  0  0  0  0  0  0  0  0
   -7.8971    6.1200   -0.0000 C   0  0  0  0  0  0  0  0  0  0  0  0
   -6.6025    3.8720   -0.0000 C   0  0  0  0  0  0  0  0  0  0  0  0
   -7.9089    4.6370   -0.0000 C   0  0  0  0  0  0  0  0  0  0  0  0
   -9.3329    6.5907   -0.0000 C   0  0  0  0  0  0  0  0  0  0  0  0
   -9.3447    4.1898   -0.0000 N   0  0  0  0  0  0  0  0  0  0  0  0
  -10.2274    5.3903   -0.0000 N   0  0  0  0  0  0  0  0  0  0  0  0
  1  2  1  0
  2  3  2  0
  2  4  1  0
  3  5  1  0
  4  6  2  0
  5  7  2  0
  7  8  1  0
  8  9  1  0
  8 10  1  0
  9 11  2  0
 10 12  2  0
 10 13  1  0
 11 14  1  0
 11 15  1  0
 12 16  1  0
 13 17  2  0
 13 18  1  0
 15 19  2  0
 15 20  1  0
 18 21  1  0
 19 22  1  0
 20 23  2  0
 21 24  2  0
 21 25  1  0
 22 26  2  0
 24 27  1  0
 25 28  2  0
 27 29  2  0
 27 30  1  0
 29 31  1  0
 30 32  2  0
  6  7  1  0
 12 14  1  0
 23 26  1  0
 28 29  1  0
 31 32  1  0
M  END
>  <MolRegNo>  (1) 
513784

>  <m>  (1) 
=

>  <Value>  (1) 
90

>  <Unit>  (1) 
nM

>  <Type>  (1) 
IC50

>  <pValue>  (1) 
7.05

>  <Ligand Efficiency>  (1) 
0

>  <Binding Efficiency>  (1) 
0

>  <Surface Efficiency>  (1) 
0

>  <Assay Index>  (1) 
386364

>  <Assay Category>  (1) 


>  <Assay Organism>  (1) 


>  <Target ID>  (1) 
11365

>  <Target Name>  (1) 
Cytochrome P450 2D6

>  <Target Organism>  (1) 
Homo sapiens

>  <Target Description>  (1) 
Target is a single protein chain

>  <Sequence Accession>  (1) 
P10635

>  <Reference>  (1) 
J Med Chem 51 (21), 6631-6634 (2008)

>  <Pubmed ID>  (1) 
18842034

>  <DOI>  (1) 
10.1021/jm8005096

$$$$
