4wnv_ligand_394
     RDKit          2D

 29 31  0  0  0  0  0  0  0  0999 V2000
    0.0000   -0.0000   -0.0000 S   0  0  0  0  0  0  0  0  0  0  0  0
   -1.3104    0.7624   -0.0000 C   0  0  0  0  0  0  0  0  0  0  0  0
   -0.0119   -1.4891   -0.0000 C   0  0  0  0  0  0  0  0  0  0  0  0
   -1.3224    2.2754   -0.0000 C   0  0  0  0  0  0  0  0  0  0  0  0
   -2.6209    0.0238   -0.0000 C   0  0  0  0  0  0  0  0  0  0  0  0
   -2.6328    3.0498   -0.0000 C   0  0  0  0  0  0  0  0  0  0  0  0
   -0.0357    3.0378   -0.0000 C   0  0  0  0  0  0  0  0  0  0  0  0
   -3.9432    0.7863   -0.0000 C   0  0  0  0  0  0  0  0  0  0  0  0
   -3.9432    2.3111   -0.0000 C   0  0  0  0  0  0  0  0  0  0  0  0
    1.2509    2.2992   -0.0000 N   0  0  0  0  0  0  0  0  0  0  0  0
    2.5375    3.0617   -0.0000 C   0  0  0  0  0  0  0  0  0  0  0  0
    3.8241    2.3231   -0.0000 N   0  0  0  0  0  0  0  0  0  0  0  0
    2.5256    4.5865   -0.0000 N   0  0  0  0  0  0  0  0  0  0  0  0
    5.1226    3.0855   -0.0000 C   0  0  0  0  0  0  0  0  0  0  0  0
    3.8122    5.3490   -0.0000 C   0  0  0  0  0  0  0  0  0  0  0  0
    6.4092    2.3469   -0.0000 N   0  0  0  0  0  0  0  0  0  0  0  0
    5.1107    4.6104   -0.0000 C   0  0  0  0  0  0  0  0  0  0  0  0
    6.3973    0.8577   -0.0000 C   0  0  0  0  0  0  0  0  0  0  0  0
    6.3973    5.3847   -0.0000 N   0  0  0  0  0  0  0  0  0  0  0  0
    7.6839    0.1191   -0.0000 C   0  0  0  0  0  0  0  0  0  0  0  0
    6.3854    6.8977   -0.0000 O   0  0  0  0  0  0  0  0  0  0  0  0
    7.6959    4.6461   -0.0000 O   0  0  0  0  0  0  0  0  0  0  0  0
    7.6720   -1.3700   -0.0000 C   0  0  0  0  0  0  0  0  0  0  0  0
    8.9706    0.8935   -0.0000 C   0  0  0  0  0  0  0  0  0  0  0  0
    8.9586   -2.1086   -0.0000 C   0  0  0  0  0  0  0  0  0  0  0  0
   10.2572    0.1430   -0.0000 C   0  0  0  0  0  0  0  0  0  0  0  0
   10.2572   -1.3462   -0.0000 C   0  0  0  0  0  0  0  0  0  0  0  0
   11.5438   -2.0848   -0.0000 C   0  0  0  0  0  0  0  0  0  0  0  0
   11.5319   -3.5739   -0.0000 N   0  0  0  0  0  0  0  0  0  0  0  0
  1  2  1  0
  1  3  1  0
  2  4  2  0
  2  5  1  0
  4  6  1  0
  4  7  1  0
  5  8  2  0
  6  9  2  0
  7 10  1  0
 10 11  1  0
 11 12  2  0
 11 13  1  0
 12 14  1  0
 13 15  2  0
 14 16  1  0
 14 17  2  0
 16 18  1  0
 17 19  1  0
 18 20  1  0
 19 21  2  0
 19 22  1  0
 20 23  1  0
 20 24  1  0
 23 25  1  0
 24 26  1  0
 25 27  1  0
 27 28  1  0
 28 29  1  0
  8  9  1  0
 15 17  1  0
 26 27  1  0
M  CHG  2  19   1  22  -1
M  END
>  <MolRegNo>  (1) 
411266

>  <m>  (1) 
=

>  <Value>  (1) 
4700

>  <Unit>  (1) 
nM

>  <Type>  (1) 
IC50

>  <pValue>  (1) 
5.33

>  <Ligand Efficiency>  (1) 
0

>  <Binding Efficiency>  (1) 
0

>  <Surface Efficiency>  (1) 
0

>  <Assay Index>  (1) 
302005

>  <Assay Category>  (1) 


>  <Assay Organism>  (1) 


>  <Target ID>  (1) 
11365

>  <Target Name>  (1) 
Cytochrome P450 2D6

>  <Target Organism>  (1) 
Homo sapiens

>  <Target Description>  (1) 
Target is a single protein chain

>  <Sequence Accession>  (1) 
P10635

>  <Reference>  (1) 
Bioorg Med Chem Lett 17 (1), 225-230 (2007)

>  <Pubmed ID>  (1) 
17055721

>  <DOI>  (1) 
10.1016/j.bmcl.2006.09.056

$$$$
