4wnv_ligand_438
     RDKit          2D

 41 45  0  0  1  0  0  0  0  0999 V2000
    0.0000   -0.0000   -0.0000 S   0  0  0  0  0  0  0  0  0  0  0  0
    1.2041    0.8941   -0.0000 C   0  0  0  0  0  0  0  0  0  0  0  0
    0.4530   -1.4186   -0.0000 C   0  0  0  0  0  0  0  0  0  0  0  0
    2.4081    0.0358   -0.0000 N   0  0  0  0  0  0  0  0  0  0  0  0
    1.1921    2.4081   -0.0000 N   0  0  0  0  0  0  0  0  0  0  0  0
    1.9432   -1.4067   -0.0000 C   0  0  0  0  0  0  0  0  0  0  0  0
   -0.3338   -2.6823   -0.0000 C   0  0  0  0  0  0  0  0  0  0  0  0
   -0.1192    3.1830   -0.0000 C   0  0  0  0  0  0  0  0  0  0  0  0
    2.8135   -2.5989   -0.0000 C   0  0  0  0  0  0  0  0  0  0  0  0
   -1.8478   -2.6466   -0.0000 O   0  0  0  0  0  0  0  0  0  0  0  0
    0.3815   -3.9818   -0.0000 C   0  0  0  0  0  0  0  0  0  0  0  0
   -1.4306    2.4439   -0.0000 O   0  0  0  0  0  0  0  0  0  0  0  0
   -0.1311    4.6970   -0.0000 N   0  0  0  0  0  0  0  0  0  0  0  0
   -1.4425    5.4600   -0.0000 C   0  0  0  0  0  0  0  0  0  0  0  0
   -1.4544    6.9740   -0.0000 C   0  0  0  0  0  0  0  0  0  0  0  0
   -2.7538    4.7328   -0.0000 C   0  0  0  0  0  0  0  0  0  0  0  0
   -2.7658    7.7489   -0.0000 C   0  0  0  0  0  0  0  0  0  0  0  0
   -0.1550    7.7370   -0.0000 C   0  0  0  0  0  0  0  0  0  0  0  0
   -4.0652    5.4839   -0.0000 N   0  0  0  0  0  0  0  0  0  0  0  0
   -4.0771    6.9979   -0.0000 C   0  0  0  0  0  0  0  0  0  0  0  0
    1.1325    6.9860   -0.0000 N   0  0  0  0  0  0  0  0  0  0  0  0
   -5.3766    4.7447   -0.0000 C   0  0  0  0  0  0  0  0  0  0  0  0
    2.4200    7.7489   -0.0000 C   0  0  0  0  0  0  0  0  0  0  0  0
    1.1206    5.4839   -0.0000 C   0  0  0  0  0  0  0  0  0  0  0  0
   -5.3885    3.2545   -0.0000 O   0  0  0  0  0  0  0  0  0  0  0  0
   -6.6760    5.5077   -0.0000 C   0  0  0  0  0  0  0  0  0  0  0  0
    3.7076    6.9979   -0.0000 C   0  0  0  0  0  0  0  0  0  0  0  0
    2.4081    4.7447   -0.0000 C   0  0  0  0  0  0  0  0  0  0  0  0
   -8.0589    4.9116   -0.0000 C   0  0  0  0  0  0  0  0  0  0  0  0
   -6.8429    6.9979   -0.0000 C   0  0  0  0  0  0  0  0  0  0  0  0
    3.6837    5.5077   -0.0000 C   0  0  0  0  0  0  0  0  0  0  0  0
    5.0070    7.7608   -0.0000 C   0  0  0  0  0  0  0  0  0  0  0  0
   -9.0722    6.0442   -0.0000 C   0  0  0  0  0  0  0  0  0  0  0  0
   -8.3212    7.3317   -0.0000 C   0  0  0  0  0  0  0  0  0  0  0  0
    6.2945    7.0098   -0.0000 C   0  0  0  0  0  0  0  0  0  0  0  0
    6.2587    5.5196   -0.0000 C   0  0  0  0  0  0  0  0  0  0  0  0
    7.5820    7.7728   -0.0000 C   0  0  0  0  0  0  0  0  0  0  0  0
    7.5463    4.7805   -0.0000 C   0  0  0  0  0  0  0  0  0  0  0  0
    8.8695    7.0217   -0.0000 C   0  0  0  0  0  0  0  0  0  0  0  0
    8.8457    5.5315   -0.0000 C   0  0  0  0  0  0  0  0  0  0  0  0
   10.1332    4.7924   -0.0000 F   0  0  0  0  0  0  0  0  0  0  0  0
  1  2  1  0
  1  3  1  0
  2  4  2  0
  2  5  1  0
  3  6  2  0
  3  7  1  0
  5  8  1  0
  6  9  1  0
  7 10  2  0
  7 11  1  0
  8 12  2  0
  8 13  1  0
 14 13  1  6
 14 15  1  0
 14 16  1  0
 15 17  1  0
 15 18  1  1
 16 19  1  0
 17 20  1  0
 18 21  1  0
 19 22  1  0
 21 23  1  0
 21 24  1  0
 22 25  2  0
 22 26  1  0
 23 27  1  0
 24 28  1  0
 26 29  1  0
 26 30  1  0
 27 31  1  0
 27 32  1  6
 29 33  1  0
 30 34  1  0
 32 35  1  0
 35 36  2  0
 35 37  1  0
 36 38  1  0
 37 39  2  0
 38 40  2  0
 40 41  1  0
  4  6  1  0
 19 20  1  0
 28 31  1  0
 33 34  1  0
 39 40  1  0
M  END
>  <MolRegNo>  (1) 
421504

>  <m>  (1) 
=

>  <Value>  (1) 
910

>  <Unit>  (1) 
nM

>  <Type>  (1) 
IC50

>  <pValue>  (1) 
6.04

>  <Ligand Efficiency>  (1) 
0

>  <Binding Efficiency>  (1) 
0

>  <Surface Efficiency>  (1) 
0

>  <Assay Index>  (1) 
307824

>  <Assay Category>  (1) 


>  <Assay Organism>  (1) 
Homo sapiens

>  <Target ID>  (1) 
11365

>  <Target Name>  (1) 
Cytochrome P450 2D6

>  <Target Organism>  (1) 
Homo sapiens

>  <Target Description>  (1) 
Target is a single protein chain

>  <Sequence Accession>  (1) 
P10635

>  <Reference>  (1) 
Bioorg Med Chem Lett 17 (11), 2992-2997 (2007)

>  <Pubmed ID>  (1) 
17418570

>  <DOI>  (1) 
10.1016/j.bmcl.2007.03.065

$$$$
