4wnv_ligand_407
     RDKit          2D

 21 23  0  0  0  0  0  0  0  0999 V2000
    0.0000   -0.0000   -0.0000 Cl  0  0  0  0  0  0  0  0  0  0  0  0
    0.0000   -1.4926   -0.0000 C   0  0  0  0  0  0  0  0  0  0  0  0
   -1.3015   -2.2329   -0.0000 C   0  0  0  0  0  0  0  0  0  0  0  0
    1.3015   -2.2209   -0.0000 C   0  0  0  0  0  0  0  0  0  0  0  0
   -2.6150   -1.4687   -0.0000 Cl  0  0  0  0  0  0  0  0  0  0  0  0
   -1.3134   -3.7254   -0.0000 C   0  0  0  0  0  0  0  0  0  0  0  0
    1.2896   -3.7254   -0.0000 C   0  0  0  0  0  0  0  0  0  0  0  0
    2.5911   -1.4448   -0.0000 C   0  0  0  0  0  0  0  0  0  0  0  0
   -0.0239   -4.4657   -0.0000 C   0  0  0  0  0  0  0  0  0  0  0  0
    3.8806   -2.1732   -0.0000 N   0  0  0  0  0  0  0  0  0  0  0  0
    5.1702   -1.3970   -0.0000 C   0  0  0  0  0  0  0  0  0  0  0  0
    3.8806   -3.6657   -0.0000 C   0  0  0  0  0  0  0  0  0  0  0  0
    6.4598   -2.1373   -0.0000 C   0  0  0  0  0  0  0  0  0  0  0  0
    5.1344    0.1194   -0.0000 C   0  0  0  0  0  0  0  0  0  0  0  0
    5.0986   -4.5374   -0.0000 C   0  0  0  0  0  0  0  0  0  0  0  0
    2.6627   -4.5493   -0.0000 C   0  0  0  0  0  0  0  0  0  0  0  0
    7.7493   -1.3731   -0.0000 C   0  0  0  0  0  0  0  0  0  0  0  0
    6.4240    0.8836   -0.0000 C   0  0  0  0  0  0  0  0  0  0  0  0
    4.6329   -5.9583   -0.0000 N   0  0  0  0  0  0  0  0  0  0  0  0
    3.1284   -5.9702   -0.0000 C   0  0  0  0  0  0  0  0  0  0  0  0
    7.7374    0.1433   -0.0000 O   0  0  0  0  0  0  0  0  0  0  0  0
  1  2  1  0
  2  3  2  0
  2  4  1  0
  3  5  1  0
  3  6  1  0
  4  7  2  0
  4  8  1  0
  6  9  2  0
  8 10  1  0
 10 11  1  0
 12 10  1  6
 11 13  1  0
 11 14  1  0
 12 15  1  0
 12 16  1  0
 13 17  1  0
 14 18  1  0
 15 19  1  0
 16 20  1  0
 17 21  1  0
  7  9  1  0
 18 21  1  0
 19 20  1  0
M  END
>  <MolRegNo>  (1) 
412774

>  <m>  (1) 
=

>  <Value>  (1) 
4800

>  <Unit>  (1) 
nM

>  <Type>  (1) 
IC50

>  <pValue>  (1) 
5.32

>  <Ligand Efficiency>  (1) 
0

>  <Binding Efficiency>  (1) 
0

>  <Surface Efficiency>  (1) 
0

>  <Assay Index>  (1) 
303145

>  <Assay Category>  (1) 


>  <Assay Organism>  (1) 
Homo sapiens

>  <Target ID>  (1) 
11365

>  <Target Name>  (1) 
Cytochrome P450 2D6

>  <Target Organism>  (1) 
Homo sapiens

>  <Target Description>  (1) 
Target is a single protein chain

>  <Sequence Accession>  (1) 
P10635

>  <Reference>  (1) 
Bioorg Med Chem Lett 17 (7), 2022-2025 (2007)

>  <Pubmed ID>  (1) 
17267217

>  <DOI>  (1) 
10.1016/j.bmcl.2007.01.020

$$$$
