4wnv_ligand_129
     RDKit          2D

 33 36  0  0  0  0  0  0  0  0999 V2000
    0.0000   -0.0000   -0.0000 O   0  0  0  0  0  0  0  0  0  0  0  0
   -0.0120   -1.4942   -0.0000 C   0  0  0  0  0  0  0  0  0  0  0  0
    1.2910    0.7650   -0.0000 C   0  0  0  0  0  0  0  0  0  0  0  0
    1.2910   -2.2353   -0.0000 C   0  0  0  0  0  0  0  0  0  0  0  0
   -1.3149   -2.2353   -0.0000 C   0  0  0  0  0  0  0  0  0  0  0  0
    2.5820    0.0239   -0.0000 C   0  0  0  0  0  0  0  0  0  0  0  0
    2.5820   -1.4703   -0.0000 O   0  0  0  0  0  0  0  0  0  0  0  0
    1.2790   -3.7296   -0.0000 C   0  0  0  0  0  0  0  0  0  0  0  0
   -1.3149   -3.7296   -0.0000 C   0  0  0  0  0  0  0  0  0  0  0  0
    2.9645    1.5062   -0.0000 O   0  0  0  0  0  0  0  0  0  0  0  0
    3.8730    0.8009   -0.0000 C   0  0  0  0  0  0  0  0  0  0  0  0
    3.8730   -2.2114   -0.0000 C   0  0  0  0  0  0  0  0  0  0  0  0
   -0.0239   -4.4707   -0.0000 C   0  0  0  0  0  0  0  0  0  0  0  0
   -2.6298   -4.4707   -0.0000 N   0  0  0  0  0  0  0  0  0  0  0  0
    5.1640    0.0598   -0.0000 N   0  0  0  0  0  0  0  0  0  0  0  0
   -0.0359   -5.9768   -0.0000 C   0  0  0  0  0  0  0  0  0  0  0  0
   -2.6418   -5.9768   -0.0000 C   0  0  0  0  0  0  0  0  0  0  0  0
    6.6104    0.4781   -0.0000 C   0  0  0  0  0  0  0  0  0  0  0  0
   -1.3508   -6.7180   -0.0000 N   0  0  0  0  0  0  0  0  0  0  0  0
    1.0280   -7.0288   -0.0000 C   0  0  0  0  0  0  0  0  0  0  0  0
    7.9014    1.2432   -0.0000 C   0  0  0  0  0  0  0  0  0  0  0  0
    8.0448    0.0956   -0.0000 C   0  0  0  0  0  0  0  0  0  0  0  0
    6.5865    1.9963   -0.0000 C   0  0  0  0  0  0  0  0  0  0  0  0
    0.6216   -8.4632   -0.0000 C   0  0  0  0  0  0  0  0  0  0  0  0
    9.3358    0.8726   -0.0000 C   0  0  0  0  0  0  0  0  0  0  0  0
   10.8061    1.1236   -0.0000 N   0  0  0  0  0  0  0  0  0  0  0  0
    9.0848   -0.6096   -0.0000 C   0  0  0  0  0  0  0  0  0  0  0  0
   11.4755   -0.2152   -0.0000 C   0  0  0  0  0  0  0  0  0  0  0  0
   10.4117   -1.2790   -0.0000 C   0  0  0  0  0  0  0  0  0  0  0  0
   12.9339   -0.5857   -0.0000 C   0  0  0  0  0  0  0  0  0  0  0  0
   10.8061   -2.7374   -0.0000 C   0  0  0  0  0  0  0  0  0  0  0  0
   13.3284   -2.0441   -0.0000 C   0  0  0  0  0  0  0  0  0  0  0  0
   12.2645   -3.1199   -0.0000 C   0  0  0  0  0  0  0  0  0  0  0  0
  1  2  1  0
  1  3  1  0
  2  4  2  0
  2  5  1  0
  3  6  1  0
  4  7  1  0
  4  8  1  0
  5  9  2  0
  6 10  1  0
  6 11  1  0
  7 12  1  0
  8 13  2  0
  9 14  1  0
 11 15  1  0
 13 16  1  0
 14 17  2  0
 15 18  1  0
 16 19  2  0
 16 20  1  0
 18 21  1  0
 18 22  1  0
 18 23  1  0
 20 24  1  0
 21 25  1  0
 25 26  1  0
 25 27  2  0
 26 28  1  0
 27 29  1  0
 28 30  2  0
 29 31  2  0
 30 32  1  0
 31 33  1  0
  9 13  1  0
 17 19  1  0
 28 29  1  0
 32 33  2  0
M  END
>  <MolRegNo>  (1) 
301538

>  <m>  (1) 
=

>  <Value>  (1) 
40

>  <Unit>  (1) 
nM

>  <Type>  (1) 
IC50

>  <pValue>  (1) 
7.4

>  <Ligand Efficiency>  (1) 
0

>  <Binding Efficiency>  (1) 
0

>  <Surface Efficiency>  (1) 
0

>  <Assay Index>  (1) 
238811

>  <Assay Category>  (1) 


>  <Assay Organism>  (1) 
Homo sapiens

>  <Target ID>  (1) 
11365

>  <Target Name>  (1) 
Cytochrome P450 2D6

>  <Target Organism>  (1) 
Homo sapiens

>  <Target Description>  (1) 
Target is a single protein chain

>  <Sequence Accession>  (1) 
P10635

>  <Reference>  (1) 
Bioorg Med Chem Lett 15 (17), 3816-3820 (2005)

>  <Pubmed ID>  (1) 
15993593

>  <DOI>  (1) 
10.1016/j.bmcl.2005.06.007

$$$$
