4wnv_ligand_1061
     RDKit          2D

 37 41  0  0  0  0  0  0  0  0999 V2000
    0.0000   -0.0000   -0.0000 O   0  0  0  0  0  0  0  0  0  0  0  0
    0.2859   -1.4652   -0.0000 C   0  0  0  0  0  0  0  0  0  0  0  0
    1.6439   -2.0727   -0.0000 N   0  0  0  0  0  0  0  0  0  0  0  0
   -0.7386   -2.5611   -0.0000 N   0  0  0  0  0  0  0  0  0  0  0  0
    1.4533   -3.5499   -0.0000 C   0  0  0  0  0  0  0  0  0  0  0  0
    2.9423   -1.3223   -0.0000 C   0  0  0  0  0  0  0  0  0  0  0  0
    0.0000   -3.8596   -0.0000 C   0  0  0  0  0  0  0  0  0  0  0  0
   -2.2514   -2.3825   -0.0000 C   0  0  0  0  0  0  0  0  0  0  0  0
    2.4420   -4.6458   -0.0000 C   0  0  0  0  0  0  0  0  0  0  0  0
    2.9423    0.1906   -0.0000 C   0  0  0  0  0  0  0  0  0  0  0  0
    4.2289   -2.0727   -0.0000 C   0  0  0  0  0  0  0  0  0  0  0  0
   -0.4765   -5.2652   -0.0000 C   0  0  0  0  0  0  0  0  0  0  0  0
   -2.8709   -0.9887   -0.0000 C   0  0  0  0  0  0  0  0  0  0  0  0
    1.9655   -6.0515   -0.0000 C   0  0  0  0  0  0  0  0  0  0  0  0
    4.2289    0.9411   -0.0000 C   0  0  0  0  0  0  0  0  0  0  0  0
    5.5273   -1.3223   -0.0000 C   0  0  0  0  0  0  0  0  0  0  0  0
    0.5122   -6.3731   -0.0000 C   0  0  0  0  0  0  0  0  0  0  0  0
   -4.3837   -0.8100   -0.0000 C   0  0  0  0  0  0  0  0  0  0  0  0
    5.5273    0.1906   -0.0000 N   0  0  0  0  0  0  0  0  0  0  0  0
   -5.0032    0.5837   -0.0000 N   0  0  0  0  0  0  0  0  0  0  0  0
    6.8258    0.9530   -0.0000 C   0  0  0  0  0  0  0  0  0  0  0  0
   -6.5160    0.7624   -0.0000 C   0  0  0  0  0  0  0  0  0  0  0  0
   -4.1217    1.8107   -0.0000 C   0  0  0  0  0  0  0  0  0  0  0  0
    6.8258    2.4658   -0.0000 O   0  0  0  0  0  0  0  0  0  0  0  0
    8.1123    0.2025   -0.0000 C   0  0  0  0  0  0  0  0  0  0  0  0
    9.4107    0.9649   -0.0000 C   0  0  0  0  0  0  0  0  0  0  0  0
    8.1004   -1.2984   -0.0000 C   0  0  0  0  0  0  0  0  0  0  0  0
   10.6973    0.2263   -0.0000 C   0  0  0  0  0  0  0  0  0  0  0  0
    9.3869   -2.0489   -0.0000 C   0  0  0  0  0  0  0  0  0  0  0  0
   10.6734   -1.2746   -0.0000 N   0  0  0  0  0  0  0  0  0  0  0  0
   11.9600   -2.0132   -0.0000 C   0  0  0  0  0  0  0  0  0  0  0  0
   13.2465   -1.2508   -0.0000 C   0  0  0  0  0  0  0  0  0  0  0  0
   13.2346    0.2740   -0.0000 C   0  0  0  0  0  0  0  0  0  0  0  0
   14.5330   -1.9894   -0.0000 C   0  0  0  0  0  0  0  0  0  0  0  0
   14.5211    1.0364   -0.0000 C   0  0  0  0  0  0  0  0  0  0  0  0
   15.8315   -1.2270   -0.0000 C   0  0  0  0  0  0  0  0  0  0  0  0
   15.8195    0.2978   -0.0000 N   0  0  0  0  0  0  0  0  0  0  0  0
  1  2  2  0
  2  3  1  0
  2  4  1  0
  3  5  1  0
  3  6  1  0
  4  7  1  0
  4  8  1  0
  5  9  2  0
  6 10  1  0
  6 11  1  0
  7 12  2  0
  8 13  1  0
  9 14  1  0
 10 15  1  0
 11 16  1  0
 12 17  1  0
 13 18  1  0
 15 19  1  0
 18 20  1  0
 19 21  1  0
 20 22  1  0
 20 23  1  0
 21 24  2  0
 21 25  1  0
 25 26  1  0
 25 27  1  0
 26 28  1  0
 27 29  1  0
 28 30  1  0
 30 31  1  0
 31 32  1  0
 32 33  2  0
 32 34  1  0
 33 35  1  0
 34 36  2  0
 35 37  2  0
  5  7  1  0
 14 17  2  0
 16 19  1  0
 29 30  1  0
 36 37  1  0
M  END
>  <MolRegNo>  (1) 
689306

>  <m>  (1) 
=

>  <Value>  (1) 
1600

>  <Unit>  (1) 
nM

>  <Type>  (1) 
IC50

>  <pValue>  (1) 
5.8

>  <Ligand Efficiency>  (1) 
0

>  <Binding Efficiency>  (1) 
0

>  <Surface Efficiency>  (1) 
0

>  <Assay Index>  (1) 
497181

>  <Assay Category>  (1) 


>  <Assay Organism>  (1) 
Homo sapiens

>  <Target ID>  (1) 
11365

>  <Target Name>  (1) 
Cytochrome P450 2D6

>  <Target Organism>  (1) 
Homo sapiens

>  <Target Description>  (1) 
Target is a single protein chain

>  <Sequence Accession>  (1) 
P10635

>  <Reference>  (1) 
Bioorg Med Chem Lett 20 (17), 5004-5008 (2010)

>  <Pubmed ID>  (1) 
20685118

>  <DOI>  (1) 
10.1016/j.bmcl.2010.07.052

$$$$
