4wnv_ligand_1023
     RDKit          2D

 26 28  0  0  0  0  0  0  0  0999 V2000
    0.0000   -0.0000   -0.0000 S   0  0  0  0  0  0  0  0  0  0  0  0
    0.7472    1.3165   -0.0000 O   0  0  0  0  0  0  0  0  0  0  0  0
   -1.3165    0.7709   -0.0000 O   0  0  0  0  0  0  0  0  0  0  0  0
   -0.7591   -1.2928   -0.0000 C   0  0  0  0  0  0  0  0  0  0  0  0
    1.2928   -0.7472   -0.0000 C   0  0  0  0  0  0  0  0  0  0  0  0
   -2.2772   -1.2928   -0.0000 C   0  0  0  0  0  0  0  0  0  0  0  0
    0.0000   -2.5737   -0.0000 C   0  0  0  0  0  0  0  0  0  0  0  0
    1.2809   -2.2298   -0.0000 C   0  0  0  0  0  0  0  0  0  0  0  0
    2.5737    0.0356   -0.0000 C   0  0  0  0  0  0  0  0  0  0  0  0
   -3.0363   -2.5856   -0.0000 C   0  0  0  0  0  0  0  0  0  0  0  0
   -3.0482    0.0237   -0.0000 C   0  0  0  0  0  0  0  0  0  0  0  0
   -0.7472   -3.8665   -0.0000 C   0  0  0  0  0  0  0  0  0  0  0  0
    2.5856   -2.9651   -0.0000 C   0  0  0  0  0  0  0  0  0  0  0  0
    3.8665   -0.6879   -0.0000 C   0  0  0  0  0  0  0  0  0  0  0  0
   -2.2891   -3.8784   -0.0000 C   0  0  0  0  0  0  0  0  0  0  0  0
   -4.5663    0.0356   -0.0000 O   0  0  0  0  0  0  0  0  0  0  0  0
    3.8784   -2.1823   -0.0000 C   0  0  0  0  0  0  0  0  0  0  0  0
    5.1712   -2.9295   -0.0000 C   0  0  0  0  0  0  0  0  0  0  0  0
    6.4640   -2.1586   -0.0000 C   0  0  0  0  0  0  0  0  0  0  0  0
    7.7449   -2.8940   -0.0000 C   0  0  0  0  0  0  0  0  0  0  0  0
    7.7449   -4.3647   -0.0000 C   0  0  0  0  0  0  0  0  0  0  0  0
    9.0258   -2.0993   -0.0000 C   0  0  0  0  0  0  0  0  0  0  0  0
    9.0377   -5.1000   -0.0000 C   0  0  0  0  0  0  0  0  0  0  0  0
   10.3186   -2.8228   -0.0000 C   0  0  0  0  0  0  0  0  0  0  0  0
   10.3305   -4.3291   -0.0000 C   0  0  0  0  0  0  0  0  0  0  0  0
   11.6233   -5.0644   -0.0000 F   0  0  0  0  0  0  0  0  0  0  0  0
  1  2  2  0
  1  3  2  0
  1  4  1  0
  1  5  1  0
  4  6  2  0
  4  7  1  0
  5  8  2  0
  5  9  1  0
  6 10  1  0
  6 11  1  0
  7 12  2  0
  8 13  1  0
  9 14  2  0
 10 15  2  0
 11 16  1  0
 13 17  2  0
 17 18  1  0
 18 19  2  0
 19 20  1  0
 20 21  2  0
 20 22  1  0
 21 23  1  0
 22 24  2  0
 23 25  2  0
 25 26  1  0
 12 15  1  0
 14 17  1  0
 24 25  1  0
M  END
>  <MolRegNo>  (1) 
632978

>  <m>  (1) 
=

>  <Value>  (1) 
100

>  <Unit>  (1) 
nM

>  <Type>  (1) 
IC50

>  <pValue>  (1) 
7

>  <Ligand Efficiency>  (1) 
0

>  <Binding Efficiency>  (1) 
0

>  <Surface Efficiency>  (1) 
0

>  <Assay Index>  (1) 
479345

>  <Assay Category>  (1) 


>  <Assay Organism>  (1) 


>  <Target ID>  (1) 
11365

>  <Target Name>  (1) 
Cytochrome P450 2D6

>  <Target Organism>  (1) 
Homo sapiens

>  <Target Description>  (1) 
Target is a single protein chain

>  <Sequence Accession>  (1) 
P10635

>  <Reference>  (1) 
Bioorg Med Chem Lett 20 (12), 3708-3712 (2010)

>  <Pubmed ID>  (1) 
20493697

>  <DOI>  (1) 
10.1016/j.bmcl.2010.04.090

$$$$
