4wnv_ligand_307
     RDKit          2D

 39 43  0  0  1  0  0  0  0  0999 V2000
    0.0000   -0.0000   -0.0000 S   0  0  0  0  0  0  0  0  0  0  0  0
   -1.0665   -1.0665   -0.0000 C   0  0  0  0  0  0  0  0  0  0  0  0
    1.3391   -0.6636   -0.0000 C   0  0  0  0  0  0  0  0  0  0  0  0
   -2.5597   -0.8295   -0.0000 C   0  0  0  0  0  0  0  0  0  0  0  0
   -0.3792   -2.3820   -0.0000 C   0  0  0  0  0  0  0  0  0  0  0  0
    2.6545    0.0356   -0.0000 C   0  0  0  0  0  0  0  0  0  0  0  0
    1.1021   -2.1331   -0.0000 C   0  0  0  0  0  0  0  0  0  0  0  0
   -3.1167    0.5807   -0.0000 C   0  0  0  0  0  0  0  0  0  0  0  0
   -3.4959   -1.9909   -0.0000 C   0  0  0  0  0  0  0  0  0  0  0  0
    2.7019    1.5524   -0.0000 O   0  0  0  0  0  0  0  0  0  0  0  0
    3.9107   -0.7584   -0.0000 N   0  0  0  0  0  0  0  0  0  0  0  0
   -4.6098    0.8177   -0.0000 C   0  0  0  0  0  0  0  0  0  0  0  0
   -4.9891   -1.7657   -0.0000 C   0  0  0  0  0  0  0  0  0  0  0  0
    5.2261   -0.0593   -0.0000 C   0  0  0  0  0  0  0  0  0  0  0  0
    3.8396   -2.2516   -0.0000 C   0  0  0  0  0  0  0  0  0  0  0  0
   -5.5579   -0.3555   -0.0000 C   0  0  0  0  0  0  0  0  0  0  0  0
    6.5652   -0.7110   -0.0000 C   0  0  0  0  0  0  0  0  0  0  0  0
    5.4275    1.4339   -0.0000 C   0  0  0  0  0  0  0  0  0  0  0  0
   -7.0510   -0.1304   -0.0000 O   0  0  0  0  0  0  0  0  0  0  0  0
    7.5962    0.3792   -0.0000 N   0  0  0  0  0  0  0  0  0  0  0  0
    6.8970    1.6946   -0.0000 C   0  0  0  0  0  0  0  0  0  0  0  0
   -7.9991   -1.3036   -0.0000 C   0  0  0  0  0  0  0  0  0  0  0  0
    9.0656    0.1778   -0.0000 C   0  0  0  0  0  0  0  0  0  0  0  0
   -9.4922   -1.0784   -0.0000 C   0  0  0  0  0  0  0  0  0  0  0  0
    9.9900    1.3628   -0.0000 O   0  0  0  0  0  0  0  0  0  0  0  0
    9.6108   -1.2088   -0.0000 N   0  0  0  0  0  0  0  0  0  0  0  0
   11.0565   -1.5761   -0.0000 C   0  0  0  0  0  0  0  0  0  0  0  0
    8.7931   -2.4768   -0.0000 C   0  0  0  0  0  0  0  0  0  0  0  0
   11.1513   -3.0574   -0.0000 C   0  0  0  0  0  0  0  0  0  0  0  0
    9.7411   -3.6144   -0.0000 C   0  0  0  0  0  0  0  0  0  0  0  0
   12.4075   -3.8514   -0.0000 N   0  0  0  0  0  0  0  0  0  0  0  0
   13.7229   -3.1404   -0.0000 C   0  0  0  0  0  0  0  0  0  0  0  0
   14.9909   -3.9462   -0.0000 C   0  0  0  0  0  0  0  0  0  0  0  0
   13.7703   -1.6354   -0.0000 C   0  0  0  0  0  0  0  0  0  0  0  0
   16.3063   -3.2352   -0.0000 C   0  0  0  0  0  0  0  0  0  0  0  0
   15.0975   -0.9243   -0.0000 C   0  0  0  0  0  0  0  0  0  0  0  0
   16.3655   -1.7183   -0.0000 C   0  0  0  0  0  0  0  0  0  0  0  0
   17.6572   -2.4649   -0.0000 C   0  0  0  0  0  0  0  0  0  0  0  0
   17.1121   -0.4029   -0.0000 C   0  0  0  0  0  0  0  0  0  0  0  0
  1  2  1  0
  1  3  1  0
  2  4  1  0
  2  5  2  0
  3  6  1  0
  3  7  2  0
  4  8  2  0
  4  9  1  0
  6 10  2  0
  6 11  1  0
  8 12  1  0
  9 13  2  0
 14 11  1  1
 11 15  1  0
 12 16  2  0
 14 17  1  0
 14 18  1  0
 16 19  1  0
 17 20  1  0
 18 21  1  0
 19 22  1  0
 20 23  1  0
 22 24  1  0
 23 25  2  0
 23 26  1  0
 26 27  1  0
 26 28  1  0
 27 29  1  0
 28 30  1  0
 29 31  1  6
 31 32  1  0
 32 33  1  0
 32 34  1  0
 33 35  1  0
 34 36  1  0
 35 37  1  0
 37 38  1  0
 37 39  1  0
  5  7  1  0
 13 16  1  0
 20 21  1  0
 29 30  1  0
 36 37  1  0
M  END
>  <MolRegNo>  (1) 
359892

>  <m>  (1) 
=

>  <Value>  (1) 
12500

>  <Unit>  (1) 
nM

>  <Type>  (1) 
IC50

>  <pValue>  (1) 
4.9

>  <Ligand Efficiency>  (1) 
0

>  <Binding Efficiency>  (1) 
0

>  <Surface Efficiency>  (1) 
0

>  <Assay Index>  (1) 
268140

>  <Assay Category>  (1) 


>  <Assay Organism>  (1) 
Homo sapiens

>  <Target ID>  (1) 
11365

>  <Target Name>  (1) 
Cytochrome P450 2D6

>  <Target Organism>  (1) 
Homo sapiens

>  <Target Description>  (1) 
Target is a single protein chain

>  <Sequence Accession>  (1) 
P10635

>  <Reference>  (1) 
Bioorg Med Chem Lett 16 (18), 4922-4930 (2006)

>  <Pubmed ID>  (1) 
16824755

>  <DOI>  (1) 
10.1016/j.bmcl.2006.06.049

$$$$
