4wnv_ligand_1039
     RDKit          2D

 22 25  0  0  0  0  0  0  0  0999 V2000
    0.0000   -0.0000   -0.0000 N   0  0  0  0  0  0  0  0  0  0  0  0
   -0.8940   -1.1999   -0.0000 N   0  0  0  0  0  0  0  0  0  0  0  0
   -0.8940    1.2351   -0.0000 C   0  0  0  0  0  0  0  0  0  0  0  0
   -2.3291   -0.7176   -0.0000 C   0  0  0  0  0  0  0  0  0  0  0  0
   -2.3409    0.7881   -0.0000 C   0  0  0  0  0  0  0  0  0  0  0  0
   -3.6349   -1.4469   -0.0000 C   0  0  0  0  0  0  0  0  0  0  0  0
   -3.6466    1.5292   -0.0000 C   0  0  0  0  0  0  0  0  0  0  0  0
   -4.9288   -0.6940   -0.0000 C   0  0  0  0  0  0  0  0  0  0  0  0
   -4.9406    0.7999   -0.0000 C   0  0  0  0  0  0  0  0  0  0  0  0
   -6.2346    1.5528   -0.0000 N   0  0  0  0  0  0  0  0  0  0  0  0
   -6.2463    3.0585   -0.0000 C   0  0  0  0  0  0  0  0  0  0  0  0
   -7.5285    0.8234   -0.0000 C   0  0  0  0  0  0  0  0  0  0  0  0
   -7.5403    3.8231   -0.0000 C   0  0  0  0  0  0  0  0  0  0  0  0
   -4.9641    3.8113   -0.0000 C   0  0  0  0  0  0  0  0  0  0  0  0
   -8.8225    1.5763   -0.0000 C   0  0  0  0  0  0  0  0  0  0  0  0
   -8.8342    3.0820   -0.0000 N   0  0  0  0  0  0  0  0  0  0  0  0
   -4.9759    5.3170   -0.0000 C   0  0  0  0  0  0  0  0  0  0  0  0
   -3.6937    6.0699   -0.0000 C   0  0  0  0  0  0  0  0  0  0  0  0
   -6.2816    6.0699   -0.0000 C   0  0  0  0  0  0  0  0  0  0  0  0
   -3.6937    7.5638   -0.0000 C   0  0  0  0  0  0  0  0  0  0  0  0
   -6.2816    7.5756   -0.0000 C   0  0  0  0  0  0  0  0  0  0  0  0
   -4.9876    8.3284   -0.0000 C   0  0  0  0  0  0  0  0  0  0  0  0
  1  2  1  0
  1  3  2  0
  2  4  1  0
  3  5  1  0
  4  6  2  0
  5  7  2  0
  6  8  1  0
  7  9  1  0
  9 10  1  0
 10 11  1  0
 10 12  1  0
 11 13  1  0
 11 14  1  0
 12 15  1  0
 13 16  1  0
 14 17  1  0
 17 18  1  0
 17 19  1  0
 18 20  1  0
 19 21  1  0
 20 22  1  0
  4  5  1  0
  8  9  2  0
 15 16  1  0
 21 22  1  0
M  END
>  <MolRegNo>  (1) 
648346

>  <m>  (1) 
=

>  <Value>  (1) 
1050

>  <Unit>  (1) 
nM

>  <Type>  (1) 
IC50

>  <pValue>  (1) 
5.98

>  <Ligand Efficiency>  (1) 
0

>  <Binding Efficiency>  (1) 
0

>  <Surface Efficiency>  (1) 
0

>  <Assay Index>  (1) 
485181

>  <Assay Category>  (1) 


>  <Assay Organism>  (1) 


>  <Target ID>  (1) 
11365

>  <Target Name>  (1) 
Cytochrome P450 2D6

>  <Target Organism>  (1) 
Homo sapiens

>  <Target Description>  (1) 
Target is a single protein chain

>  <Sequence Accession>  (1) 
P10635

>  <Reference>  (1) 
Bioorg Med Chem Lett 20 (13), 3941-3945 (2010)

>  <Pubmed ID>  (1) 
20570146

>  <DOI>  (1) 
10.1016/j.bmcl.2010.05.008

$$$$
