4wnv_ligand_266
     RDKit          2D

 30 33  0  0  0  0  0  0  0  0999 V2000
    0.0000   -0.0000   -0.0000 O   0  0  0  0  0  0  0  0  0  0  0  0
    0.0000   -1.4899   -0.0000 C   0  0  0  0  0  0  0  0  0  0  0  0
   -1.3007   -2.2348   -0.0000 N   0  0  0  0  0  0  0  0  0  0  0  0
    1.2889   -2.2230   -0.0000 C   0  0  0  0  0  0  0  0  0  0  0  0
   -1.3007   -3.7247   -0.0000 C   0  0  0  0  0  0  0  0  0  0  0  0
   -2.6132   -1.4899   -0.0000 C   0  0  0  0  0  0  0  0  0  0  0  0
    1.2889   -3.7129   -0.0000 C   0  0  0  0  0  0  0  0  0  0  0  0
   -0.0118   -4.4460   -0.0000 C   0  0  0  0  0  0  0  0  0  0  0  0
   -3.9139   -2.2348   -0.0000 C   0  0  0  0  0  0  0  0  0  0  0  0
   -3.9021   -3.7247   -0.0000 C   0  0  0  0  0  0  0  0  0  0  0  0
   -5.2264   -1.4899   -0.0000 C   0  0  0  0  0  0  0  0  0  0  0  0
   -5.2028   -4.4697   -0.0000 C   0  0  0  0  0  0  0  0  0  0  0  0
   -6.5271   -2.2467   -0.0000 C   0  0  0  0  0  0  0  0  0  0  0  0
   -6.5271   -3.7129   -0.0000 C   0  0  0  0  0  0  0  0  0  0  0  0
   -7.8278   -4.4578   -0.0000 O   0  0  0  0  0  0  0  0  0  0  0  0
   -9.1403   -3.7129   -0.0000 C   0  0  0  0  0  0  0  0  0  0  0  0
  -10.4410   -4.4578   -0.0000 C   0  0  0  0  0  0  0  0  0  0  0  0
  -11.7536   -3.7011   -0.0000 C   0  0  0  0  0  0  0  0  0  0  0  0
  -13.0661   -4.4342   -0.0000 N   0  0  0  0  0  0  0  0  0  0  0  0
  -13.0779   -5.9241   -0.0000 C   0  0  0  0  0  0  0  0  0  0  0  0
  -14.3668   -3.6774   -0.0000 C   0  0  0  0  0  0  0  0  0  0  0  0
  -14.3786   -6.6572   -0.0000 C   0  0  0  0  0  0  0  0  0  0  0  0
  -15.6793   -4.4105   -0.0000 C   0  0  0  0  0  0  0  0  0  0  0  0
  -15.6911   -5.9004   -0.0000 C   0  0  0  0  0  0  0  0  0  0  0  0
  -17.0036   -6.6335   -0.0000 C   0  0  0  0  0  0  0  0  0  0  0  0
  -18.3043   -5.8768   -0.0000 C   0  0  0  0  0  0  0  0  0  0  0  0
  -19.6878   -6.4798   -0.0000 N   0  0  0  0  0  0  0  0  0  0  0  0
  -18.4817   -4.3751   -0.0000 C   0  0  0  0  0  0  0  0  0  0  0  0
  -20.7047   -5.3447   -0.0000 C   0  0  0  0  0  0  0  0  0  0  0  0
  -19.9598   -4.0558   -0.0000 N   0  0  0  0  0  0  0  0  0  0  0  0
  1  2  2  0
  2  3  1  0
  2  4  1  0
  3  5  1  0
  3  6  1  0
  4  7  1  0
  5  8  1  0
  6  9  1  0
  9 10  2  0
  9 11  1  0
 10 12  1  0
 11 13  2  0
 12 14  2  0
 14 15  1  0
 15 16  1  0
 16 17  1  0
 17 18  1  0
 18 19  1  0
 19 20  1  0
 19 21  1  0
 20 22  1  0
 21 23  1  0
 22 24  1  0
 24 25  1  0
 25 26  1  0
 26 27  1  0
 26 28  2  0
 27 29  2  0
 28 30  1  0
  7  8  1  0
 13 14  1  0
 23 24  1  0
 29 30  1  0
M  END
>  <MolRegNo>  (1) 
339738

>  <m>  (1) 
=

>  <Value>  (1) 
5000

>  <Unit>  (1) 
nM

>  <Type>  (1) 
IC50

>  <pValue>  (1) 
5.3

>  <Ligand Efficiency>  (1) 
0

>  <Binding Efficiency>  (1) 
0

>  <Surface Efficiency>  (1) 
0

>  <Assay Index>  (1) 
257620

>  <Assay Category>  (1) 


>  <Assay Organism>  (1) 
Homo sapiens

>  <Target ID>  (1) 
11365

>  <Target Name>  (1) 
Cytochrome P450 2D6

>  <Target Organism>  (1) 
Homo sapiens

>  <Target Description>  (1) 
Target is a single protein chain

>  <Sequence Accession>  (1) 
P10635

>  <Reference>  (1) 
Bioorg Med Chem Lett 16 (4), 989-994 (2006)

>  <Pubmed ID>  (1) 
16297617

>  <DOI>  (1) 
10.1016/j.bmcl.2005.10.087

$$$$
