4wnv_ligand_306
     RDKit          2D

 36 40  0  0  1  0  0  0  0  0999 V2000
    0.0000   -0.0000   -0.0000 S   0  0  0  0  0  0  0  0  0  0  0  0
   -1.0668   -1.0668   -0.0000 C   0  0  0  0  0  0  0  0  0  0  0  0
    1.3395   -0.6638   -0.0000 C   0  0  0  0  0  0  0  0  0  0  0  0
   -2.5604   -0.8298   -0.0000 C   0  0  0  0  0  0  0  0  0  0  0  0
   -0.3793   -2.3944   -0.0000 C   0  0  0  0  0  0  0  0  0  0  0  0
    2.6552    0.0356   -0.0000 C   0  0  0  0  0  0  0  0  0  0  0  0
    1.1024   -2.1336   -0.0000 C   0  0  0  0  0  0  0  0  0  0  0  0
   -3.1175    0.5808   -0.0000 C   0  0  0  0  0  0  0  0  0  0  0  0
   -3.4968   -1.9914   -0.0000 C   0  0  0  0  0  0  0  0  0  0  0  0
    2.7026    1.5528   -0.0000 O   0  0  0  0  0  0  0  0  0  0  0  0
    3.9117   -0.7586   -0.0000 N   0  0  0  0  0  0  0  0  0  0  0  0
   -4.6110    0.8179   -0.0000 C   0  0  0  0  0  0  0  0  0  0  0  0
   -4.9904   -1.7662   -0.0000 C   0  0  0  0  0  0  0  0  0  0  0  0
    5.2274   -0.0593   -0.0000 C   0  0  0  0  0  0  0  0  0  0  0  0
    3.8287   -2.2522   -0.0000 C   0  0  0  0  0  0  0  0  0  0  0  0
   -5.5593   -0.3556   -0.0000 C   0  0  0  0  0  0  0  0  0  0  0  0
    6.5669   -0.7112   -0.0000 C   0  0  0  0  0  0  0  0  0  0  0  0
    5.4408    1.4343   -0.0000 C   0  0  0  0  0  0  0  0  0  0  0  0
    7.6100    0.3793   -0.0000 N   0  0  0  0  0  0  0  0  0  0  0  0
    6.9106    1.6951   -0.0000 C   0  0  0  0  0  0  0  0  0  0  0  0
    9.0798    0.1778   -0.0000 C   0  0  0  0  0  0  0  0  0  0  0  0
   10.0044    1.3632   -0.0000 O   0  0  0  0  0  0  0  0  0  0  0  0
    9.6133   -1.2091   -0.0000 N   0  0  0  0  0  0  0  0  0  0  0  0
   11.0594   -1.5765   -0.0000 C   0  0  0  0  0  0  0  0  0  0  0  0
    8.7954   -2.4774   -0.0000 C   0  0  0  0  0  0  0  0  0  0  0  0
   11.1542   -3.0582   -0.0000 C   0  0  0  0  0  0  0  0  0  0  0  0
    9.7436   -3.6153   -0.0000 C   0  0  0  0  0  0  0  0  0  0  0  0
   12.4107   -3.8524   -0.0000 N   0  0  0  0  0  0  0  0  0  0  0  0
   13.7265   -3.1412   -0.0000 C   0  0  0  0  0  0  0  0  0  0  0  0
   14.9948   -3.9472   -0.0000 C   0  0  0  0  0  0  0  0  0  0  0  0
   13.7739   -1.6358   -0.0000 C   0  0  0  0  0  0  0  0  0  0  0  0
   16.3105   -3.2360   -0.0000 C   0  0  0  0  0  0  0  0  0  0  0  0
   15.1015   -0.9246   -0.0000 C   0  0  0  0  0  0  0  0  0  0  0  0
   16.3698   -1.7188   -0.0000 C   0  0  0  0  0  0  0  0  0  0  0  0
   17.6618   -2.4655   -0.0000 C   0  0  0  0  0  0  0  0  0  0  0  0
   17.1047   -0.4030   -0.0000 C   0  0  0  0  0  0  0  0  0  0  0  0
  1  2  1  0
  1  3  1  0
  2  4  1  0
  2  5  2  0
  3  6  1  0
  3  7  2  0
  4  8  2  0
  4  9  1  0
  6 10  2  0
  6 11  1  0
  8 12  1  0
  9 13  2  0
 14 11  1  1
 11 15  1  0
 12 16  2  0
 14 17  1  0
 14 18  1  0
 17 19  1  0
 18 20  1  0
 19 21  1  0
 21 22  2  0
 21 23  1  0
 23 24  1  0
 23 25  1  0
 24 26  1  0
 25 27  1  0
 26 28  1  6
 28 29  1  0
 29 30  1  0
 29 31  1  0
 30 32  1  0
 31 33  1  0
 32 34  1  0
 34 35  1  0
 34 36  1  0
  5  7  1  0
 13 16  1  0
 19 20  1  0
 26 27  1  0
 33 34  1  0
M  END
>  <MolRegNo>  (1) 
359397

>  <m>  (1) 
=

>  <Value>  (1) 
2300

>  <Unit>  (1) 
nM

>  <Type>  (1) 
IC50

>  <pValue>  (1) 
5.64

>  <Ligand Efficiency>  (1) 
0

>  <Binding Efficiency>  (1) 
0

>  <Surface Efficiency>  (1) 
0

>  <Assay Index>  (1) 
268140

>  <Assay Category>  (1) 


>  <Assay Organism>  (1) 
Homo sapiens

>  <Target ID>  (1) 
11365

>  <Target Name>  (1) 
Cytochrome P450 2D6

>  <Target Organism>  (1) 
Homo sapiens

>  <Target Description>  (1) 
Target is a single protein chain

>  <Sequence Accession>  (1) 
P10635

>  <Reference>  (1) 
Bioorg Med Chem Lett 16 (18), 4922-4930 (2006)

>  <Pubmed ID>  (1) 
16824755

>  <DOI>  (1) 
10.1016/j.bmcl.2006.06.049

$$$$
