4wnv_ligand_145
     RDKit          2D

 35 38  0  0  0  0  0  0  0  0999 V2000
    0.0000   -0.0000   -0.0000 S   0  0  0  0  0  0  0  0  0  0  0  0
   -0.0119   -1.5026   -0.0000 C   0  0  0  0  0  0  0  0  0  0  0  0
    1.4072    0.4651   -0.0000 C   0  0  0  0  0  0  0  0  0  0  0  0
    1.3953   -1.9439   -0.0000 N   0  0  0  0  0  0  0  0  0  0  0  0
   -1.3118   -2.2420   -0.0000 N   0  0  0  0  0  0  0  0  0  0  0  0
    1.8485    1.8962   -0.0000 C   0  0  0  0  0  0  0  0  0  0  0  0
    2.2778   -0.7155   -0.0000 C   0  0  0  0  0  0  0  0  0  0  0  0
   -2.6117   -1.4788   -0.0000 C   0  0  0  0  0  0  0  0  0  0  0  0
   -1.3237   -3.7208   -0.0000 C   0  0  0  0  0  0  0  0  0  0  0  0
    0.8467    3.0052   -0.0000 O   0  0  0  0  0  0  0  0  0  0  0  0
    3.2795    2.2301   -0.0000 O   0  0  0  0  0  0  0  0  0  0  0  0
   -2.6475    0.0239   -0.0000 O   0  0  0  0  0  0  0  0  0  0  0  0
   -3.9354   -2.2182   -0.0000 C   0  0  0  0  0  0  0  0  0  0  0  0
   -0.0239   -4.4602   -0.0000 C   0  0  0  0  0  0  0  0  0  0  0  0
   -2.6236   -4.4602   -0.0000 C   0  0  0  0  0  0  0  0  0  0  0  0
   -5.2353   -1.4549   -0.0000 C   0  0  0  0  0  0  0  0  0  0  0  0
   -3.9474   -3.7208   -0.0000 C   0  0  0  0  0  0  0  0  0  0  0  0
   -0.0358   -5.9389   -0.0000 C   0  0  0  0  0  0  0  0  0  0  0  0
   -2.6356   -5.9389   -0.0000 C   0  0  0  0  0  0  0  0  0  0  0  0
   -6.5352   -2.1943   -0.0000 C   0  0  0  0  0  0  0  0  0  0  0  0
   -5.2473   -4.4602   -0.0000 C   0  0  0  0  0  0  0  0  0  0  0  0
   -1.3357   -6.6783   -0.0000 C   0  0  0  0  0  0  0  0  0  0  0  0
   -6.5471   -3.6969   -0.0000 C   0  0  0  0  0  0  0  0  0  0  0  0
   -7.8709   -4.4482   -0.0000 O   0  0  0  0  0  0  0  0  0  0  0  0
   -9.1946   -3.6850   -0.0000 C   0  0  0  0  0  0  0  0  0  0  0  0
  -10.4945   -4.4363   -0.0000 C   0  0  0  0  0  0  0  0  0  0  0  0
  -11.7944   -3.6731   -0.0000 C   0  0  0  0  0  0  0  0  0  0  0  0
  -10.4826   -5.9151   -0.0000 C   0  0  0  0  0  0  0  0  0  0  0  0
  -13.0943   -4.4125   -0.0000 C   0  0  0  0  0  0  0  0  0  0  0  0
  -11.8063   -6.6545   -0.0000 C   0  0  0  0  0  0  0  0  0  0  0  0
  -13.1062   -5.8912   -0.0000 C   0  0  0  0  0  0  0  0  0  0  0  0
  -14.4180   -3.6373   -0.0000 C   0  0  0  0  0  0  0  0  0  0  0  0
  -15.7656   -2.8741   -0.0000 F   0  0  0  0  0  0  0  0  0  0  0  0
  -15.1932   -4.9372   -0.0000 F   0  0  0  0  0  0  0  0  0  0  0  0
  -13.6786   -2.3136   -0.0000 F   0  0  0  0  0  0  0  0  0  0  0  0
  1  2  1  0
  1  3  1  0
  2  4  2  0
  2  5  1  0
  3  6  1  0
  3  7  2  0
  5  8  1  0
  5  9  1  0
  6 10  2  0
  6 11  1  0
  8 12  2  0
  8 13  1  0
  9 14  1  0
  9 15  1  0
 13 16  2  0
 13 17  1  0
 14 18  1  0
 15 19  1  0
 16 20  1  0
 17 21  2  0
 18 22  1  0
 20 23  2  0
 23 24  1  0
 24 25  1  0
 25 26  1  0
 26 27  2  0
 26 28  1  0
 27 29  1  0
 28 30  2  0
 29 31  2  0
 29 32  1  0
 32 33  1  0
 32 34  1  0
 32 35  1  0
  4  7  1  0
 19 22  1  0
 21 23  1  0
 30 31  1  0
M  END
>  <MolRegNo>  (1) 
304675

>  <m>  (1) 
=

>  <Value>  (1) 
30000

>  <Unit>  (1) 
nM

>  <Type>  (1) 
IC50

>  <pValue>  (1) 
4.52

>  <Ligand Efficiency>  (1) 
0

>  <Binding Efficiency>  (1) 
0

>  <Surface Efficiency>  (1) 
0

>  <Assay Index>  (1) 
237675

>  <Assay Category>  (1) 


>  <Assay Organism>  (1) 
Homo sapiens

>  <Target ID>  (1) 
11365

>  <Target Name>  (1) 
Cytochrome P450 2D6

>  <Target Organism>  (1) 
Homo sapiens

>  <Target Description>  (1) 
Target is a single protein chain

>  <Sequence Accession>  (1) 
P10635

>  <Reference>  (1) 
Bioorg Med Chem Lett 15 (1), 115-119 (2005)

>  <Pubmed ID>  (1) 
15582422

>  <DOI>  (1) 
10.1016/j.bmcl.2004.10.024

$$$$
