4wnv_ligand_951
     RDKit          2D

 31 34  0  0  0  0  0  0  0  0999 V2000
    0.0000   -0.0000   -0.0000 O   0  0  0  0  0  0  0  0  0  0  0  0
   -1.3125   -0.7398   -0.0000 C   0  0  0  0  0  0  0  0  0  0  0  0
   -1.3244   -2.2313   -0.0000 N   0  0  0  0  0  0  0  0  0  0  0  0
   -2.6250    0.0239   -0.0000 C   0  0  0  0  0  0  0  0  0  0  0  0
   -0.0358   -2.9710   -0.0000 C   0  0  0  0  0  0  0  0  0  0  0  0
   -2.6250   -2.9710   -0.0000 C   0  0  0  0  0  0  0  0  0  0  0  0
   -3.9375   -0.7159   -0.0000 C   0  0  0  0  0  0  0  0  0  0  0  0
   -0.0477   -4.4744   -0.0000 N   0  0  0  0  0  0  0  0  0  0  0  0
    1.2528   -2.2074   -0.0000 C   0  0  0  0  0  0  0  0  0  0  0  0
   -3.9375   -2.2193   -0.0000 C   0  0  0  0  0  0  0  0  0  0  0  0
    1.2409   -5.2142   -0.0000 C   0  0  0  0  0  0  0  0  0  0  0  0
    2.5415   -2.9472   -0.0000 C   0  0  0  0  0  0  0  0  0  0  0  0
    1.2290   -6.7057   -0.0000 N   0  0  0  0  0  0  0  0  0  0  0  0
    2.5295   -4.4506   -0.0000 C   0  0  0  0  0  0  0  0  0  0  0  0
    3.9733   -2.4580   -0.0000 C   0  0  0  0  0  0  0  0  0  0  0  0
   -0.0835   -7.4455   -0.0000 C   0  0  0  0  0  0  0  0  0  0  0  0
    3.9614   -4.9040   -0.0000 N   0  0  0  0  0  0  0  0  0  0  0  0
    4.8563   -3.6631   -0.0000 C   0  0  0  0  0  0  0  0  0  0  0  0
    4.4267   -1.0142   -0.0000 C   0  0  0  0  0  0  0  0  0  0  0  0
   -0.0955   -8.9369   -0.0000 C   0  0  0  0  0  0  0  0  0  0  0  0
    4.7011   -6.1926   -0.0000 C   0  0  0  0  0  0  0  0  0  0  0  0
    6.3477   -3.6392   -0.0000 C   0  0  0  0  0  0  0  0  0  0  0  0
    1.1932   -9.6648   -0.0000 C   0  0  0  0  0  0  0  0  0  0  0  0
   -1.4080   -9.6648   -0.0000 C   0  0  0  0  0  0  0  0  0  0  0  0
    3.9375   -7.4813   -0.0000 C   0  0  0  0  0  0  0  0  0  0  0  0
    1.1932  -11.1563   -0.0000 C   0  0  0  0  0  0  0  0  0  0  0  0
    2.4818   -8.8892   -0.0000 C   0  0  0  0  0  0  0  0  0  0  0  0
   -1.4199  -11.1563   -0.0000 C   0  0  0  0  0  0  0  0  0  0  0  0
   -2.7205   -8.9011   -0.0000 C   0  0  0  0  0  0  0  0  0  0  0  0
    4.6773   -8.7699   -0.0000 C   0  0  0  0  0  0  0  0  0  0  0  0
   -0.1313  -11.9080   -0.0000 C   0  0  0  0  0  0  0  0  0  0  0  0
  1  2  2  0
  2  3  1  0
  2  4  1  0
  3  5  1  0
  3  6  1  0
  4  7  2  0
  5  8  2  0
  5  9  1  0
  6 10  2  0
  8 11  1  0
  9 12  2  0
 11 13  1  0
 11 14  2  0
 12 15  1  0
 13 16  1  0
 14 17  1  0
 15 18  2  0
 15 19  1  0
 16 20  1  0
 17 21  1  0
 18 22  1  0
 20 23  2  0
 20 24  1  0
 21 25  1  0
 23 26  1  0
 23 27  1  0
 24 28  2  0
 24 29  1  0
 25 30  2  0
 26 31  2  0
  7 10  1  0
 12 14  1  0
 17 18  1  0
 28 31  1  0
M  END
>  <MolRegNo>  (1) 
611817

>  <m>  (1) 
=

>  <Value>  (1) 
26000

>  <Unit>  (1) 
nM

>  <Type>  (1) 
IC50

>  <pValue>  (1) 
4.58

>  <Ligand Efficiency>  (1) 
0

>  <Binding Efficiency>  (1) 
0

>  <Surface Efficiency>  (1) 
0

>  <Assay Index>  (1) 
464697

>  <Assay Category>  (1) 


>  <Assay Organism>  (1) 


>  <Target ID>  (1) 
11365

>  <Target Name>  (1) 
Cytochrome P450 2D6

>  <Target Organism>  (1) 
Homo sapiens

>  <Target Description>  (1) 
Target is a single protein chain

>  <Sequence Accession>  (1) 
P10635

>  <Reference>  (1) 
Bioorg Med Chem Lett 19 (23), 6813-6817 (2009)

>  <Pubmed ID>  (1) 
19846298

>  <DOI>  (1) 
10.1016/j.bmcl.2009.07.002

$$$$
