4wnv_ligand_391
     RDKit          2D

 34 36  0  0  0  0  0  0  0  0999 V2000
    0.0000   -0.0000   -0.0000 Cl  0  0  0  0  0  0  0  0  0  0  0  0
   -5.8824    1.9924   -0.0000 O   0  0  0  0  0  0  0  0  0  0  0  0
   -7.1989    1.2571   -0.0000 C   0  0  0  0  0  0  0  0  0  0  0  0
   -7.2107   -0.2372   -0.0000 N   0  0  0  0  0  0  0  0  0  0  0  0
   -8.5035    2.0280   -0.0000 C   0  0  0  0  0  0  0  0  0  0  0  0
   -5.9299   -0.9725   -0.0000 C   0  0  0  0  0  0  0  0  0  0  0  0
   -8.5153   -0.9725   -0.0000 C   0  0  0  0  0  0  0  0  0  0  0  0
   -9.8080    1.2809   -0.0000 N   0  0  0  0  0  0  0  0  0  0  0  0
   -5.9417   -2.4668   -0.0000 C   0  0  0  0  0  0  0  0  0  0  0  0
   -4.6490   -0.2135   -0.0000 C   0  0  0  0  0  0  0  0  0  0  0  0
   -9.8199   -0.2135   -0.0000 C   0  0  0  0  0  0  0  0  0  0  0  0
  -11.1245    2.0399   -0.0000 C   0  0  0  0  0  0  0  0  0  0  0  0
   -4.6490   -3.2140   -0.0000 C   0  0  0  0  0  0  0  0  0  0  0  0
   -3.3563   -0.9488   -0.0000 C   0  0  0  0  0  0  0  0  0  0  0  0
  -11.1363    3.5579   -0.0000 O   0  0  0  0  0  0  0  0  0  0  0  0
  -12.4409    1.2927   -0.0000 C   0  0  0  0  0  0  0  0  0  0  0  0
   -3.3563   -2.4550   -0.0000 C   0  0  0  0  0  0  0  0  0  0  0  0
  -13.7573    2.0636   -0.0000 C   0  0  0  0  0  0  0  0  0  0  0  0
  -12.4409   -0.1898   -0.0000 C   0  0  0  0  0  0  0  0  0  0  0  0
   -2.0636   -3.1903   -0.0000 O   0  0  0  0  0  0  0  0  0  0  0  0
  -15.0738    1.3164   -0.0000 C   0  0  0  0  0  0  0  0  0  0  0  0
  -13.7455   -0.9369   -0.0000 C   0  0  0  0  0  0  0  0  0  0  0  0
   -0.7709   -2.4313   -0.0000 C   0  0  0  0  0  0  0  0  0  0  0  0
  -15.0856   -0.1779   -0.0000 C   0  0  0  0  0  0  0  0  0  0  0  0
    0.5218   -3.1666   -0.0000 C   0  0  0  0  0  0  0  0  0  0  0  0
  -16.4021   -0.9251   -0.0000 C   0  0  0  0  0  0  0  0  0  0  0  0
    1.8145   -2.4075   -0.0000 C   0  0  0  0  0  0  0  0  0  0  0  0
  -17.7304   -1.6604   -0.0000 N   0  0  0  0  0  0  0  0  0  0  0  0
    3.1073   -3.1428   -0.0000 N   0  0  0  0  0  0  0  0  0  0  0  0
    3.0835   -4.6253   -0.0000 C   0  0  0  0  0  0  0  0  0  0  0  0
    4.3881   -2.3720   -0.0000 C   0  0  0  0  0  0  0  0  0  0  0  0
    4.3644   -5.3606   -0.0000 C   0  0  0  0  0  0  0  0  0  0  0  0
    5.6808   -3.1191   -0.0000 C   0  0  0  0  0  0  0  0  0  0  0  0
    5.6571   -4.6016   -0.0000 C   0  0  0  0  0  0  0  0  0  0  0  0
  2  3  2  0
  3  4  1  0
  3  5  1  0
  4  6  1  0
  4  7  1  0
  5  8  1  0
  6  9  2  0
  6 10  1  0
  7 11  1  0
  8 12  1  0
  9 13  1  0
 10 14  2  0
 12 15  2  0
 12 16  1  0
 13 17  2  0
 16 18  2  0
 16 19  1  0
 17 20  1  0
 18 21  1  0
 19 22  2  0
 20 23  1  0
 21 24  2  0
 23 25  1  0
 24 26  1  0
 25 27  1  0
 26 28  3  0
 27 29  1  0
 29 30  1  0
 29 31  1  0
 30 32  1  0
 31 33  1  0
 32 34  1  0
  8 11  1  0
 14 17  1  0
 22 24  1  0
 33 34  1  0
M  END
>  <MolRegNo>  (1) 
549825

>  <m>  (1) 
=

>  <Value>  (1) 
77000

>  <Unit>  (1) 
nM

>  <Type>  (1) 
IC50

>  <pValue>  (1) 
4.11

>  <Ligand Efficiency>  (1) 
0

>  <Binding Efficiency>  (1) 
0

>  <Surface Efficiency>  (1) 
0

>  <Assay Index>  (1) 
301708

>  <Assay Category>  (1) 


>  <Assay Organism>  (1) 
Homo sapiens

>  <Target ID>  (1) 
11365

>  <Target Name>  (1) 
Cytochrome P450 2D6

>  <Target Organism>  (1) 
Homo sapiens

>  <Target Description>  (1) 
Target is a single protein chain

>  <Sequence Accession>  (1) 
P10635

>  <Reference>  (1) 
J Med Chem 50 (26), 6706-6717 (2007)

>  <Pubmed ID>  (1) 
18052318

>  <DOI>  (1) 
10.1021/jm0708228

$$$$
