4wnv_ligand_494
     RDKit          2D

 38 41  0  0  1  0  0  0  0  0999 V2000
    0.0000   -0.0000   -0.0000 F   0  0  0  0  0  0  0  0  0  0  0  0
    1.4934   -0.0000   -0.0000 C   0  0  0  0  0  0  0  0  0  0  0  0
    2.2283   -1.2919   -0.0000 C   0  0  0  0  0  0  0  0  0  0  0  0
    2.2402    1.3038   -0.0000 C   0  0  0  0  0  0  0  0  0  0  0  0
    3.7217   -1.2919   -0.0000 C   0  0  0  0  0  0  0  0  0  0  0  0
    3.7217    1.3156   -0.0000 C   0  0  0  0  0  0  0  0  0  0  0  0
    4.4685    0.0237   -0.0000 C   0  0  0  0  0  0  0  0  0  0  0  0
    5.9619    0.0356   -0.0000 C   0  0  0  0  0  0  0  0  0  0  0  0
    6.7086    1.3512   -0.0000 C   0  0  0  0  0  0  0  0  0  0  0  0
    8.2020    1.3631   -0.0000 C   0  0  0  0  0  0  0  0  0  0  0  0
    5.9382    2.6669   -0.0000 C   0  0  0  0  0  0  0  0  0  0  0  0
    8.9488    2.6669   -0.0000 N   0  0  0  0  0  0  0  0  0  0  0  0
    6.6849    3.9825   -0.0000 C   0  0  0  0  0  0  0  0  0  0  0  0
   10.4422    2.6669   -0.0000 C   0  0  0  0  0  0  0  0  0  0  0  0
    8.1902    3.9825   -0.0000 C   0  0  0  0  0  0  0  0  0  0  0  0
   11.1889    3.9825   -0.0000 O   0  0  0  0  0  0  0  0  0  0  0  0
   11.1771    1.3749   -0.0000 C   0  0  0  0  0  0  0  0  0  0  0  0
   12.6705    1.3749   -0.0000 C   0  0  0  0  0  0  0  0  0  0  0  0
   13.4172    2.6906   -0.0000 N   0  0  0  0  0  0  0  0  0  0  0  0
   13.4054    0.0830   -0.0000 C   0  0  0  0  0  0  0  0  0  0  0  0
   14.9107    2.6906   -0.0000 C   0  0  0  0  0  0  0  0  0  0  0  0
   15.6455    1.3986   -0.0000 O   0  0  0  0  0  0  0  0  0  0  0  0
   15.6574    4.0062   -0.0000 N   0  0  0  0  0  0  0  0  0  0  0  0
   17.1508    4.0062   -0.0000 C   0  0  0  0  0  0  0  0  0  0  0  0
   17.8738    2.7143   -0.0000 C   0  0  0  0  0  0  0  0  0  0  0  0
   17.8857    5.3218   -0.0000 C   0  0  0  0  0  0  0  0  0  0  0  0
   19.3673    2.7143   -0.0000 C   0  0  0  0  0  0  0  0  0  0  0  0
   19.3791    5.3337   -0.0000 C   0  0  0  0  0  0  0  0  0  0  0  0
   20.1140    1.4223   -0.0000 C   0  0  0  0  0  0  0  0  0  0  0  0
   20.1140    4.0299   -0.0000 C   0  0  0  0  0  0  0  0  0  0  0  0
   20.1258    6.6493   -0.0000 C   0  0  0  0  0  0  0  0  0  0  0  0
   21.6074    1.2801   -0.0000 N   0  0  0  0  0  0  0  0  0  0  0  0
   19.4976    0.0593   -0.0000 N   0  0  0  0  0  0  0  0  0  0  0  0
   21.6193    6.6612   -0.0000 C   0  0  0  0  0  0  0  0  0  0  0  0
   19.3673    7.9650   -0.0000 C   0  0  0  0  0  0  0  0  0  0  0  0
   21.9156   -0.1778   -0.0000 N   0  0  0  0  0  0  0  0  0  0  0  0
   20.6118   -0.9364   -0.0000 N   0  0  0  0  0  0  0  0  0  0  0  0
   18.0161   -0.2489   -0.0000 C   0  0  0  0  0  0  0  0  0  0  0  0
  1  2  1  0
  2  3  2  0
  2  4  1  0
  3  5  1  0
  4  6  2  0
  5  7  2  0
  7  8  1  0
  9  8  1  6
  9 10  1  0
  9 11  1  0
 10 12  1  0
 11 13  1  0
 12 14  1  0
 12 15  1  0
 14 16  1  6
 14 17  1  0
 17 18  1  0
 18 19  1  0
 18 20  1  6
 19 21  1  0
 21 22  2  0
 21 23  1  0
 23 24  1  0
 24 25  2  0
 24 26  1  0
 25 27  1  0
 26 28  2  0
 27 29  1  0
 27 30  2  0
 28 31  1  0
 29 32  2  0
 29 33  1  0
 31 34  1  0
 31 35  1  0
 32 36  1  0
 33 37  1  0
 33 38  1  0
  6  7  1  0
 13 15  1  0
 28 30  1  0
 36 37  2  0
M  END
>  <MolRegNo>  (1) 
438021

>  <m>  (1) 
=

>  <Value>  (1) 
4700

>  <Unit>  (1) 
nM

>  <Type>  (1) 
IC50

>  <pValue>  (1) 
5.33

>  <Ligand Efficiency>  (1) 
0

>  <Binding Efficiency>  (1) 
0

>  <Surface Efficiency>  (1) 
0

>  <Assay Index>  (1) 
314783

>  <Assay Category>  (1) 


>  <Assay Organism>  (1) 


>  <Target ID>  (1) 
11365

>  <Target Name>  (1) 
Cytochrome P450 2D6

>  <Target Organism>  (1) 
Homo sapiens

>  <Target Description>  (1) 
Target is a single protein chain

>  <Sequence Accession>  (1) 
P10635

>  <Reference>  (1) 
Bioorg Med Chem Lett 18 (2), 576-585 (2008)

>  <Pubmed ID>  (1) 
18096386

>  <DOI>  (1) 
10.1016/j.bmcl.2007.11.067

$$$$
