4wnv_ligand_938
     RDKit          2D

 31 34  0  0  1  0  0  0  0  0999 V2000
    0.0000   -0.0000   -0.0000 F   0  0  0  0  0  0  0  0  0  0  0  0
   -1.3179    0.7599   -0.0000 C   0  0  0  0  0  0  0  0  0  0  0  0
   -1.3298    2.2796   -0.0000 C   0  0  0  0  0  0  0  0  0  0  0  0
   -2.6358    0.0237   -0.0000 C   0  0  0  0  0  0  0  0  0  0  0  0
   -2.6358    3.0395   -0.0000 C   0  0  0  0  0  0  0  0  0  0  0  0
   -0.0475    3.0514   -0.0000 C   0  0  0  0  0  0  0  0  0  0  0  0
   -3.9419    0.7836   -0.0000 C   0  0  0  0  0  0  0  0  0  0  0  0
   -3.9419    2.3034   -0.0000 C   0  0  0  0  0  0  0  0  0  0  0  0
    0.9973    4.1319   -0.0000 F   0  0  0  0  0  0  0  0  0  0  0  0
   -0.0594    4.5593   -0.0000 F   0  0  0  0  0  0  0  0  0  0  0  0
    1.2467    2.3153   -0.0000 F   0  0  0  0  0  0  0  0  0  0  0  0
   -5.2479    3.0633   -0.0000 C   0  0  0  0  0  0  0  0  0  0  0  0
   -6.5540    2.3271   -0.0000 N   0  0  0  0  0  0  0  0  0  0  0  0
   -7.8600    3.0870   -0.0000 C   0  0  0  0  0  0  0  0  0  0  0  0
   -6.5659    0.8430   -0.0000 C   0  0  0  0  0  0  0  0  0  0  0  0
   -7.8719    4.5949   -0.0000 O   0  0  0  0  0  0  0  0  0  0  0  0
   -9.1661    2.3509   -0.0000 C   0  0  0  0  0  0  0  0  0  0  0  0
   -5.3548   -0.0237   -0.0000 C   0  0  0  0  0  0  0  0  0  0  0  0
   -7.7888   -0.0237   -0.0000 C   0  0  0  0  0  0  0  0  0  0  0  0
  -10.4128    3.2176   -0.0000 N   0  0  0  0  0  0  0  0  0  0  0  0
   -9.6291    0.9261   -0.0000 C   0  0  0  0  0  0  0  0  0  0  0  0
   -5.8297   -1.4367   -0.0000 C   0  0  0  0  0  0  0  0  0  0  0  0
   -7.3257   -1.4367   -0.0000 C   0  0  0  0  0  0  0  0  0  0  0  0
  -11.6238    2.3271   -0.0000 C   0  0  0  0  0  0  0  0  0  0  0  0
  -11.1370    0.9142   -0.0000 N   0  0  0  0  0  0  0  0  0  0  0  0
   -5.3904   -2.8496   -0.0000 C   0  0  0  0  0  0  0  0  0  0  0  0
   -7.8007   -2.8496   -0.0000 C   0  0  0  0  0  0  0  0  0  0  0  0
  -12.0156   -0.2968   -0.0000 C   0  0  0  0  0  0  0  0  0  0  0  0
   -6.6133   -3.7044   -0.0000 N   0  0  0  0  0  0  0  0  0  0  0  0
   -6.6371   -5.1886   -0.0000 C   0  0  0  0  0  0  0  0  0  0  0  0
   -7.9550   -5.9247   -0.0000 C   0  0  0  0  0  0  0  0  0  0  0  0
  1  2  1  0
  2  3  2  0
  2  4  1  0
  3  5  1  0
  3  6  1  0
  4  7  2  0
  5  8  2  0
  6  9  1  0
  6 10  1  0
  6 11  1  0
  8 12  1  0
 12 13  1  0
 13 14  1  0
 15 13  1  1
 14 16  2  0
 14 17  1  0
 15 18  1  0
 15 19  1  0
 17 20  1  0
 17 21  2  0
 22 18  1  1
 23 19  1  1
 20 24  2  0
 21 25  1  0
 22 26  1  0
 23 27  1  0
 25 28  1  0
 26 29  1  0
 29 30  1  0
 30 31  1  0
  7  8  1  0
 22 23  1  0
 24 25  1  0
 27 29  1  0
M  END
>  <MolRegNo>  (1) 
600498

>  <m>  (1) 
=

>  <Value>  (1) 
1800

>  <Unit>  (1) 
nM

>  <Type>  (1) 
IC50

>  <pValue>  (1) 
5.75

>  <Ligand Efficiency>  (1) 
0

>  <Binding Efficiency>  (1) 
0

>  <Surface Efficiency>  (1) 
0

>  <Assay Index>  (1) 
457653

>  <Assay Category>  (1) 


>  <Assay Organism>  (1) 


>  <Target ID>  (1) 
11365

>  <Target Name>  (1) 
Cytochrome P450 2D6

>  <Target Organism>  (1) 
Homo sapiens

>  <Target Description>  (1) 
Target is a single protein chain

>  <Sequence Accession>  (1) 
P10635

>  <Reference>  (1) 
Bioorg Med Chem Lett 20 (3), 907-911 (2010)

>  <Pubmed ID>  (1) 
20045321

>  <DOI>  (1) 
10.1016/j.bmcl.2009.12.071

$$$$
