4wnv_ligand_14
     RDKit          2D

 45 48  0  0  0  0  0  0  0  0999 V2000
    0.0000   -0.0000   -0.0000 S   0  0  0  0  0  0  0  0  0  0  0  0
    1.2791    0.7675   -0.0000 C   0  0  0  0  0  0  0  0  0  0  0  0
   -1.3035    0.7553   -0.0000 C   0  0  0  0  0  0  0  0  0  0  0  0
    1.2669    2.2780   -0.0000 N   0  0  0  0  0  0  0  0  0  0  0  0
    2.5826    0.0244   -0.0000 N   0  0  0  0  0  0  0  0  0  0  0  0
   -2.6070    0.0122   -0.0000 C   0  0  0  0  0  0  0  0  0  0  0  0
    2.5460    3.0455   -0.0000 C   0  0  0  0  0  0  0  0  0  0  0  0
    3.8617    0.7918   -0.0000 C   0  0  0  0  0  0  0  0  0  0  0  0
    2.5704   -1.4618   -0.0000 C   0  0  0  0  0  0  0  0  0  0  0  0
   -3.9226    0.7796   -0.0000 C   0  0  0  0  0  0  0  0  0  0  0  0
   -2.6191   -1.4984   -0.0000 C   0  0  0  0  0  0  0  0  0  0  0  0
    2.5339    4.5561   -0.0000 O   0  0  0  0  0  0  0  0  0  0  0  0
    3.8495    2.3024   -0.0000 C   0  0  0  0  0  0  0  0  0  0  0  0
    5.1408    0.0487   -0.0000 C   0  0  0  0  0  0  0  0  0  0  0  0
    3.8617   -2.2049   -0.0000 C   0  0  0  0  0  0  0  0  0  0  0  0
   -5.2261    0.0244   -0.0000 C   0  0  0  0  0  0  0  0  0  0  0  0
   -3.9348   -2.2415   -0.0000 C   0  0  0  0  0  0  0  0  0  0  0  0
    5.1408   -1.4375   -0.0000 O   0  0  0  0  0  0  0  0  0  0  0  0
    3.8495   -3.6912   -0.0000 N   0  0  0  0  0  0  0  0  0  0  0  0
   -5.2383   -1.4618   -0.0000 C   0  0  0  0  0  0  0  0  0  0  0  0
    5.1286   -4.4343   -0.0000 C   0  0  0  0  0  0  0  0  0  0  0  0
    2.5460   -4.4343   -0.0000 C   0  0  0  0  0  0  0  0  0  0  0  0
   -6.5661   -2.2049   -0.0000 F   0  0  0  0  0  0  0  0  0  0  0  0
    6.4077   -3.6668   -0.0000 C   0  0  0  0  0  0  0  0  0  0  0  0
    1.2304   -3.6668   -0.0000 C   0  0  0  0  0  0  0  0  0  0  0  0
    7.6869   -4.4099   -0.0000 C   0  0  0  0  0  0  0  0  0  0  0  0
    6.3956   -2.1562   -0.0000 C   0  0  0  0  0  0  0  0  0  0  0  0
   -0.0731   -4.4099   -0.0000 N   0  0  0  0  0  0  0  0  0  0  0  0
    8.9660   -3.6424   -0.0000 C   0  0  0  0  0  0  0  0  0  0  0  0
    7.6747   -1.3888   -0.0000 C   0  0  0  0  0  0  0  0  0  0  0  0
   -0.0853   -5.8961   -0.0000 C   0  0  0  0  0  0  0  0  0  0  0  0
   -1.4009   -3.6546   -0.0000 C   0  0  0  0  0  0  0  0  0  0  0  0
    8.9538   -2.1319   -0.0000 C   0  0  0  0  0  0  0  0  0  0  0  0
   -1.4131   -6.6392   -0.0000 C   0  0  0  0  0  0  0  0  0  0  0  0
   -2.7044   -4.3977   -0.0000 C   0  0  0  0  0  0  0  0  0  0  0  0
   10.2329   -1.3644   -0.0000 C   0  0  0  0  0  0  0  0  0  0  0  0
   10.2207    0.1462   -0.0000 C   0  0  0  0  0  0  0  0  0  0  0  0
   11.5120   -2.1075   -0.0000 C   0  0  0  0  0  0  0  0  0  0  0  0
   11.4998    0.9137   -0.0000 C   0  0  0  0  0  0  0  0  0  0  0  0
   12.8155   -1.3400   -0.0000 C   0  0  0  0  0  0  0  0  0  0  0  0
   12.7911    0.1705   -0.0000 C   0  0  0  0  0  0  0  0  0  0  0  0
   14.0702    0.9502   -0.0000 C   0  0  0  0  0  0  0  0  0  0  0  0
   15.2397    1.6446   -0.0000 F   0  0  0  0  0  0  0  0  0  0  0  0
   15.5321    0.4142   -0.0000 F   0  0  0  0  0  0  0  0  0  0  0  0
   14.3139    2.5095   -0.0000 F   0  0  0  0  0  0  0  0  0  0  0  0
  1  2  1  0
  1  3  1  0
  2  4  2  0
  2  5  1  0
  3  6  1  0
  4  7  1  0
  5  8  1  0
  5  9  1  0
  6 10  2  0
  6 11  1  0
  7 12  2  0
  7 13  1  0
  8 14  1  0
  9 15  1  0
 10 16  1  0
 11 17  2  0
 15 18  2  0
 15 19  1  0
 16 20  2  0
 19 21  1  0
 19 22  1  0
 20 23  1  0
 21 24  1  0
 22 25  1  0
 24 26  2  0
 24 27  1  0
 25 28  1  0
 26 29  1  0
 27 30  2  0
 28 31  1  0
 28 32  1  0
 29 33  2  0
 31 34  1  0
 32 35  1  0
 33 36  1  0
 36 37  2  0
 36 38  1  0
 37 39  1  0
 38 40  2  0
 39 41  2  0
 41 42  1  0
 42 43  1  0
 42 44  1  0
 42 45  1  0
  8 13  2  0
 17 20  1  0
 30 33  1  0
 40 41  1  0
M  END
>  <MolRegNo>  (1) 
7607

>  <m>  (1) 
=

>  <Value>  (1) 
47000

>  <Unit>  (1) 
nM

>  <Type>  (1) 
IC50

>  <pValue>  (1) 
4.33

>  <Ligand Efficiency>  (1) 
0

>  <Binding Efficiency>  (1) 
0

>  <Surface Efficiency>  (1) 
0

>  <Assay Index>  (1) 
51652

>  <Assay Category>  (1) 


>  <Assay Organism>  (1) 


>  <Target ID>  (1) 
11365

>  <Target Name>  (1) 
Cytochrome P450 2D6

>  <Target Organism>  (1) 
Homo sapiens

>  <Target Description>  (1) 
Target is a single protein chain

>  <Sequence Accession>  (1) 
P10635

>  <Reference>  (1) 
Bioorg Med Chem Lett 13 (6), 1067-1070 (2003)

>  <Pubmed ID>  (1) 
12643913

>  <DOI>  (1) 
10.1016/s0960-894x(03)00058-1

$$$$
