4wnv_ligand_363
     RDKit          2D

 49 54  0  0  0  0  0  0  0  0999 V2000
    0.0000   -0.0000   -0.0000 O   0  0  0  0  0  0  0  0  0  0  0  0
   -0.0119   -1.4913   -0.0000 C   0  0  0  0  0  0  0  0  0  0  0  0
    1.2765   -2.2310   -0.0000 N   0  0  0  0  0  0  0  0  0  0  0  0
   -1.3243   -2.2310   -0.0000 C   0  0  0  0  0  0  0  0  0  0  0  0
    2.5650   -1.4674   -0.0000 C   0  0  0  0  0  0  0  0  0  0  0  0
   -1.3362   -3.7342   -0.0000 C   0  0  0  0  0  0  0  0  0  0  0  0
   -2.6366   -1.4674   -0.0000 C   0  0  0  0  0  0  0  0  0  0  0  0
    3.8535   -2.2071   -0.0000 C   0  0  0  0  0  0  0  0  0  0  0  0
    2.5412    0.0358   -0.0000 C   0  0  0  0  0  0  0  0  0  0  0  0
   -0.0477   -4.4739   -0.0000 N   0  0  0  0  0  0  0  0  0  0  0  0
   -2.6605   -4.4739   -0.0000 C   0  0  0  0  0  0  0  0  0  0  0  0
   -3.9489   -2.2071   -0.0000 C   0  0  0  0  0  0  0  0  0  0  0  0
    5.1420   -1.4436   -0.0000 C   0  0  0  0  0  0  0  0  0  0  0  0
    3.8177    0.8113   -0.0000 C   0  0  0  0  0  0  0  0  0  0  0  0
   -0.0597   -5.9652   -0.0000 C   0  0  0  0  0  0  0  0  0  0  0  0
   -3.9728   -3.7103   -0.0000 C   0  0  0  0  0  0  0  0  0  0  0  0
   -5.2613   -1.4436   -0.0000 O   0  0  0  0  0  0  0  0  0  0  0  0
    5.1301    0.0716   -0.0000 C   0  0  0  0  0  0  0  0  0  0  0  0
   -1.3720   -6.7049   -0.0000 O   0  0  0  0  0  0  0  0  0  0  0  0
    1.2288   -6.7049   -0.0000 C   0  0  0  0  0  0  0  0  0  0  0  0
   -5.2851   -4.4500   -0.0000 O   0  0  0  0  0  0  0  0  0  0  0  0
   -5.2732    0.0716   -0.0000 C   0  0  0  0  0  0  0  0  0  0  0  0
    6.4066    0.8471   -0.0000 N   0  0  0  0  0  0  0  0  0  0  0  0
    1.2050   -8.1962   -0.0000 C   0  0  0  0  0  0  0  0  0  0  0  0
    2.5054   -5.9294   -0.0000 C   0  0  0  0  0  0  0  0  0  0  0  0
   -6.5975   -3.6865   -0.0000 C   0  0  0  0  0  0  0  0  0  0  0  0
    7.7070    0.1074   -0.0000 C   0  0  0  0  0  0  0  0  0  0  0  0
    6.3827    2.3622   -0.0000 C   0  0  0  0  0  0  0  0  0  0  0  0
    2.4934   -8.9358   -0.0000 N   0  0  0  0  0  0  0  0  0  0  0  0
    3.7939   -6.6571   -0.0000 C   0  0  0  0  0  0  0  0  0  0  0  0
    8.9955    0.8709   -0.0000 C   0  0  0  0  0  0  0  0  0  0  0  0
    7.6832    3.1258   -0.0000 C   0  0  0  0  0  0  0  0  0  0  0  0
    3.7819   -8.1723   -0.0000 C   0  0  0  0  0  0  0  0  0  0  0  0
    5.0823   -5.8817   -0.0000 C   0  0  0  0  0  0  0  0  0  0  0  0
    8.9836    2.3861   -0.0000 N   0  0  0  0  0  0  0  0  0  0  0  0
    5.0823   -8.9120   -0.0000 C   0  0  0  0  0  0  0  0  0  0  0  0
    6.3827   -6.6094   -0.0000 C   0  0  0  0  0  0  0  0  0  0  0  0
   10.2720    3.1496   -0.0000 C   0  0  0  0  0  0  0  0  0  0  0  0
    6.3708   -8.1365   -0.0000 C   0  0  0  0  0  0  0  0  0  0  0  0
   11.5605    2.4099   -0.0000 C   0  0  0  0  0  0  0  0  0  0  0  0
   12.8371    3.1735   -0.0000 C   0  0  0  0  0  0  0  0  0  0  0  0
   11.5367    0.9186   -0.0000 C   0  0  0  0  0  0  0  0  0  0  0  0
   14.1255    2.4457   -0.0000 C   0  0  0  0  0  0  0  0  0  0  0  0
   12.8251    0.1790   -0.0000 C   0  0  0  0  0  0  0  0  0  0  0  0
   15.4140    3.2212   -0.0000 O   0  0  0  0  0  0  0  0  0  0  0  0
   14.1255    0.9425   -0.0000 C   0  0  0  0  0  0  0  0  0  0  0  0
   16.7144    2.4815   -0.0000 C   0  0  0  0  0  0  0  0  0  0  0  0
   15.4140    0.2028   -0.0000 O   0  0  0  0  0  0  0  0  0  0  0  0
   15.4021   -1.2885   -0.0000 C   0  0  0  0  0  0  0  0  0  0  0  0
  1  2  2  0
  2  3  1  0
  2  4  1  0
  3  5  1  0
  4  6  1  0
  4  7  2  0
  5  8  2  0
  5  9  1  0
  6 10  1  0
  6 11  2  0
  7 12  1  0
  8 13  1  0
  9 14  2  0
 10 15  1  0
 11 16  1  0
 12 17  1  0
 13 18  2  0
 15 19  2  0
 15 20  1  0
 16 21  1  0
 17 22  1  0
 18 23  1  0
 20 24  2  0
 20 25  1  0
 21 26  1  0
 23 27  1  0
 23 28  1  0
 24 29  1  0
 25 30  2  0
 27 31  1  0
 28 32  1  0
 29 33  2  0
 30 34  1  0
 31 35  1  0
 33 36  1  0
 34 37  2  0
 35 38  1  0
 36 39  2  0
 38 40  1  0
 40 41  2  0
 40 42  1  0
 41 43  1  0
 42 44  2  0
 43 45  1  0
 43 46  2  0
 45 47  1  0
 46 48  1  0
 48 49  1  0
 12 16  2  0
 14 18  1  0
 30 33  1  0
 32 35  1  0
 37 39  1  0
 44 46  1  0
M  END
>  <MolRegNo>  (1) 
391713

>  <m>  (1) 
=

>  <Value>  (1) 
17300

>  <Unit>  (1) 
nM

>  <Type>  (1) 
IC50

>  <pValue>  (1) 
4.76

>  <Ligand Efficiency>  (1) 
0

>  <Binding Efficiency>  (1) 
0

>  <Surface Efficiency>  (1) 
0

>  <Assay Index>  (1) 
292410

>  <Assay Category>  (1) 


>  <Assay Organism>  (1) 
Homo sapiens

>  <Target ID>  (1) 
11365

>  <Target Name>  (1) 
Cytochrome P450 2D6

>  <Target Organism>  (1) 
Homo sapiens

>  <Target Description>  (1) 
Target is a single protein chain

>  <Sequence Accession>  (1) 
P10635

>  <Reference>  (1) 
Bioorg Med Chem 15 (11), 3854-3868 (2007)

>  <Pubmed ID>  (1) 
17399990

>  <DOI>  (1) 
10.1016/j.bmc.2007.03.014

$$$$
