4wnv_ligand_160
     RDKit          2D

 18 19  0  0  0  0  0  0  0  0999 V2000
    0.0000   -0.0000   -0.0000 O   0  0  0  0  0  0  0  0  0  0  0  0
    0.7372   -1.2960   -0.0000 C   0  0  0  0  0  0  0  0  0  0  0  0
   -0.0238   -2.5919   -0.0000 O   0  0  0  0  0  0  0  0  0  0  0  0
    2.2352   -1.2841   -0.0000 C   0  0  0  0  0  0  0  0  0  0  0  0
    2.9843    0.0357   -0.0000 C   0  0  0  0  0  0  0  0  0  0  0  0
    2.9843   -2.5681   -0.0000 C   0  0  0  0  0  0  0  0  0  0  0  0
    4.4824    0.0594   -0.0000 C   0  0  0  0  0  0  0  0  0  0  0  0
    4.4824   -2.5563   -0.0000 C   0  0  0  0  0  0  0  0  0  0  0  0
    5.2314   -1.2365   -0.0000 C   0  0  0  0  0  0  0  0  0  0  0  0
    6.7295   -1.2246   -0.0000 C   0  0  0  0  0  0  0  0  0  0  0  0
    7.4785    0.0951   -0.0000 N   0  0  0  0  0  0  0  0  0  0  0  0
    8.9766    0.1070   -0.0000 C   0  0  0  0  0  0  0  0  0  0  0  0
    9.7257   -1.1890   -0.0000 C   0  0  0  0  0  0  0  0  0  0  0  0
    8.9410   -2.4849   -0.0000 C   0  0  0  0  0  0  0  0  0  0  0  0
   11.2000   -1.1652   -0.0000 C   0  0  0  0  0  0  0  0  0  0  0  0
    9.6900   -3.7809   -0.0000 C   0  0  0  0  0  0  0  0  0  0  0  0
   11.9371   -2.4611   -0.0000 C   0  0  0  0  0  0  0  0  0  0  0  0
   11.1881   -3.7690   -0.0000 C   0  0  0  0  0  0  0  0  0  0  0  0
  1  2  2  0
  2  3  1  0
  2  4  1  0
  4  5  2  0
  4  6  1  0
  5  7  1  0
  6  8  2  0
  7  9  2  0
  9 10  1  0
 10 11  1  0
 11 12  1  0
 12 13  1  0
 13 14  2  0
 13 15  1  0
 14 16  1  0
 15 17  2  0
 16 18  2  0
  8  9  1  0
 17 18  1  0
M  END
>  <MolRegNo>  (1) 
314208

>  <m>  (1) 
=

>  <Value>  (1) 
570000

>  <Unit>  (1) 
nM

>  <Type>  (1) 
IC50

>  <pValue>  (1) 
0

>  <Ligand Efficiency>  (1) 
0

>  <Binding Efficiency>  (1) 
0

>  <Surface Efficiency>  (1) 
0

>  <Assay Index>  (1) 
237541

>  <Assay Category>  (1) 


>  <Assay Organism>  (1) 


>  <Target ID>  (1) 
11365

>  <Target Name>  (1) 
Cytochrome P450 2D6

>  <Target Organism>  (1) 
Homo sapiens

>  <Target Description>  (1) 
Target is a single protein chain

>  <Sequence Accession>  (1) 
P10635

>  <Reference>  (1) 
J Med Chem 47 (22), 5340-5346 (2004)

>  <Pubmed ID>  (1) 
15481972

>  <DOI>  (1) 
10.1021/jm049934e

$$$$
