4wnv_ligand_693
     RDKit          2D

 39 43  0  0  0  0  0  0  0  0999 V2000
    0.0000   -0.0000   -0.0000 F   0  0  0  0  0  0  0  0  0  0  0  0
    0.7438    1.3106   -0.0000 C   0  0  0  0  0  0  0  0  0  0  0  0
   -0.0236    2.6212   -0.0000 C   0  0  0  0  0  0  0  0  0  0  0  0
    2.2315    1.3224   -0.0000 C   0  0  0  0  0  0  0  0  0  0  0  0
    0.7202    3.9317   -0.0000 C   0  0  0  0  0  0  0  0  0  0  0  0
    2.9636    2.6330   -0.0000 C   0  0  0  0  0  0  0  0  0  0  0  0
    2.2079    3.9436   -0.0000 C   0  0  0  0  0  0  0  0  0  0  0  0
    2.9400    5.2541   -0.0000 C   0  0  0  0  0  0  0  0  0  0  0  0
    4.2269    6.0098   -0.0000 C   0  0  0  0  0  0  0  0  0  0  0  0
    1.6294    6.0098   -0.0000 C   0  0  0  0  0  0  0  0  0  0  0  0
    5.5139    5.2777   -0.0000 O   0  0  0  0  0  0  0  0  0  0  0  0
    4.2151    7.5211   -0.0000 C   0  0  0  0  0  0  0  0  0  0  0  0
    1.6176    7.5211   -0.0000 C   0  0  0  0  0  0  0  0  0  0  0  0
    0.1889    5.5611   -0.0000 C   0  0  0  0  0  0  0  0  0  0  0  0
    6.8009    6.0334   -0.0000 C   0  0  0  0  0  0  0  0  0  0  0  0
    2.9045    8.2767   -0.0000 C   0  0  0  0  0  0  0  0  0  0  0  0
    0.1771    7.9934   -0.0000 C   0  0  0  0  0  0  0  0  0  0  0  0
   -0.7084    6.7890   -0.0000 N   0  0  0  0  0  0  0  0  0  0  0  0
    8.0878    5.3014   -0.0000 C   0  0  0  0  0  0  0  0  0  0  0  0
    7.5329    7.3440   -0.0000 C   0  0  0  0  0  0  0  0  0  0  0  0
   -2.2197    6.8009   -0.0000 C   0  0  0  0  0  0  0  0  0  0  0  0
    8.0760    3.8137   -0.0000 C   0  0  0  0  0  0  0  0  0  0  0  0
    9.3748    6.0570   -0.0000 C   0  0  0  0  0  0  0  0  0  0  0  0
   -3.1171    5.5965   -0.0000 C   0  0  0  0  0  0  0  0  0  0  0  0
   -3.1171    8.0288   -0.0000 C   0  0  0  0  0  0  0  0  0  0  0  0
    9.3630    3.0698   -0.0000 C   0  0  0  0  0  0  0  0  0  0  0  0
   10.6618    5.3250   -0.0000 C   0  0  0  0  0  0  0  0  0  0  0  0
   -4.5575    6.0688   -0.0000 C   0  0  0  0  0  0  0  0  0  0  0  0
   -4.5575    7.5801   -0.0000 C   0  0  0  0  0  0  0  0  0  0  0  0
   10.6500    3.8255   -0.0000 C   0  0  0  0  0  0  0  0  0  0  0  0
    9.3512    1.5821   -0.0000 C   0  0  0  0  0  0  0  0  0  0  0  0
   11.9487    6.0806   -0.0000 C   0  0  0  0  0  0  0  0  0  0  0  0
   -5.7855    5.1951   -0.0000 O   0  0  0  0  0  0  0  0  0  0  0  0
    8.0406    0.8501   -0.0000 F   0  0  0  0  0  0  0  0  0  0  0  0
   10.6381    0.8501   -0.0000 F   0  0  0  0  0  0  0  0  0  0  0  0
    9.7290    0.1417   -0.0000 F   0  0  0  0  0  0  0  0  0  0  0  0
   13.2357    5.3486   -0.0000 F   0  0  0  0  0  0  0  0  0  0  0  0
   11.9369    7.5919   -0.0000 F   0  0  0  0  0  0  0  0  0  0  0  0
   12.3266    4.6402   -0.0000 F   0  0  0  0  0  0  0  0  0  0  0  0
  1  2  1  0
  2  3  2  0
  2  4  1  0
  3  5  1  0
  4  6  2  0
  5  7  2  0
  8  7  1  1
  8  9  1  0
  8 10  1  0
  9 11  1  6
  9 12  1  0
 10 13  1  0
 10 14  1  6
 15 11  1  0
 12 16  1  0
 13 17  1  1
 14 18  1  0
 15 19  1  0
 15 20  1  6
 18 21  1  0
 19 22  2  0
 19 23  1  0
 21 24  2  0
 21 25  1  0
 22 26  1  0
 23 27  2  0
 24 28  1  0
 25 29  1  0
 26 30  2  0
 26 31  1  0
 27 32  1  0
 28 33  2  0
 31 34  1  0
 31 35  1  0
 31 36  1  0
 32 37  1  0
 32 38  1  0
 32 39  1  0
  6  7  1  0
 13 16  1  0
 17 18  1  0
 27 30  1  0
 28 29  1  0
M  END
>  <MolRegNo>  (1) 
519979

>  <m>  (1) 
=

>  <Value>  (1) 
35000

>  <Unit>  (1) 
nM

>  <Type>  (1) 
IC50

>  <pValue>  (1) 
4.46

>  <Ligand Efficiency>  (1) 
0

>  <Binding Efficiency>  (1) 
0

>  <Surface Efficiency>  (1) 
0

>  <Assay Index>  (1) 
350330

>  <Assay Category>  (1) 


>  <Assay Organism>  (1) 
Homo sapiens

>  <Target ID>  (1) 
11365

>  <Target Name>  (1) 
Cytochrome P450 2D6

>  <Target Organism>  (1) 
Homo sapiens

>  <Target Description>  (1) 
Target is a single protein chain

>  <Sequence Accession>  (1) 
P10635

>  <Reference>  (1) 
J Med Chem 52 (9), 3039-3046 (2009)

>  <Pubmed ID>  (1) 
19354254

>  <DOI>  (1) 
10.1021/jm8016514

$$$$
