4wnv_ligand_629
     RDKit          2D

 23 26  0  0  0  0  0  0  0  0999 V2000
    0.0000   -0.0000   -0.0000 O   0  0  0  0  0  0  0  0  0  0  0  0
    1.3006   -0.7279   -0.0000 C   0  0  0  0  0  0  0  0  0  0  0  0
   -0.0239    1.5154   -0.0000 C   0  0  0  0  0  0  0  0  0  0  0  0
    1.3006   -2.2194   -0.0000 C   0  0  0  0  0  0  0  0  0  0  0  0
    2.5893    0.0477   -0.0000 C   0  0  0  0  0  0  0  0  0  0  0  0
    2.5893   -2.9473   -0.0000 C   0  0  0  0  0  0  0  0  0  0  0  0
    3.8900   -0.6801   -0.0000 C   0  0  0  0  0  0  0  0  0  0  0  0
    3.8780   -2.1717   -0.0000 C   0  0  0  0  0  0  0  0  0  0  0  0
    2.5893   -4.4388   -0.0000 C   0  0  0  0  0  0  0  0  0  0  0  0
    1.2768   -5.1906   -0.0000 C   0  0  0  0  0  0  0  0  0  0  0  0
    2.5655   -5.9304   -0.0000 C   0  0  0  0  0  0  0  0  0  0  0  0
   -0.1074   -5.7872   -0.0000 C   0  0  0  0  0  0  0  0  0  0  0  0
    1.1097   -3.6871   -0.0000 C   0  0  0  0  0  0  0  0  0  0  0  0
    3.8542   -5.1548   -0.0000 C   0  0  0  0  0  0  0  0  0  0  0  0
    2.5535   -7.4219   -0.0000 C   0  0  0  0  0  0  0  0  0  0  0  0
   -1.1216   -4.6536   -0.0000 N   0  0  0  0  0  0  0  0  0  0  0  0
   -0.3699   -3.3649   -0.0000 C   0  0  0  0  0  0  0  0  0  0  0  0
    5.1429   -5.9065   -0.0000 C   0  0  0  0  0  0  0  0  0  0  0  0
    3.8422   -8.1618   -0.0000 C   0  0  0  0  0  0  0  0  0  0  0  0
    5.1309   -7.4100   -0.0000 C   0  0  0  0  0  0  0  0  0  0  0  0
    6.5747   -5.4292   -0.0000 C   0  0  0  0  0  0  0  0  0  0  0  0
    6.5628   -7.8634   -0.0000 N   0  0  0  0  0  0  0  0  0  0  0  0
    7.4577   -6.6463   -0.0000 C   0  0  0  0  0  0  0  0  0  0  0  0
  1  2  1  0
  1  3  1  0
  2  4  2  0
  2  5  1  0
  4  6  1  0
  5  7  2  0
  6  8  2  0
  6  9  1  0
  9 10  1  0
 10 11  1  0
 10 12  1  0
 10 13  1  0
 11 14  2  0
 11 15  1  0
 12 16  1  0
 13 17  1  0
 14 18  1  0
 15 19  2  0
 18 20  2  0
 18 21  1  0
 20 22  1  0
 21 23  2  0
  7  8  1  0
 16 17  1  0
 19 20  1  0
 22 23  1  0
M  END
>  <MolRegNo>  (1) 
515242

>  <m>  (1) 
=

>  <Value>  (1) 
100

>  <Unit>  (1) 
nM

>  <Type>  (1) 
IC50

>  <pValue>  (1) 
7

>  <Ligand Efficiency>  (1) 
0

>  <Binding Efficiency>  (1) 
0

>  <Surface Efficiency>  (1) 
0

>  <Assay Index>  (1) 
342264

>  <Assay Category>  (1) 


>  <Assay Organism>  (1) 


>  <Target ID>  (1) 
11365

>  <Target Name>  (1) 
Cytochrome P450 2D6

>  <Target Organism>  (1) 
Homo sapiens

>  <Target Description>  (1) 
Target is a single protein chain

>  <Sequence Accession>  (1) 
P10635

>  <Reference>  (1) 
Bioorg Med Chem Lett 18 (23), 6062-6066 (2008)

>  <Pubmed ID>  (1) 
18954985

>  <DOI>  (1) 
10.1016/j.bmcl.2008.10.025

$$$$
