4wnv_ligand_380
     RDKit          2D

 36 39  0  0  0  0  0  0  0  0999 V2000
    0.0000   -0.0000   -0.0000 F   0  0  0  0  0  0  0  0  0  0  0  0
   -0.7569    1.3009   -0.0000 C   0  0  0  0  0  0  0  0  0  0  0  0
   -0.0237    2.6137   -0.0000 C   0  0  0  0  0  0  0  0  0  0  0  0
   -2.2589    1.3128   -0.0000 C   0  0  0  0  0  0  0  0  0  0  0  0
   -0.7924    3.9146   -0.0000 C   0  0  0  0  0  0  0  0  0  0  0  0
   -3.0158    2.6137   -0.0000 C   0  0  0  0  0  0  0  0  0  0  0  0
   -0.0710    5.2274   -0.0000 F   0  0  0  0  0  0  0  0  0  0  0  0
   -2.2825    3.9146   -0.0000 C   0  0  0  0  0  0  0  0  0  0  0  0
   -4.5178    2.6255   -0.0000 C   0  0  0  0  0  0  0  0  0  0  0  0
   -5.8305    1.8923   -0.0000 O   0  0  0  0  0  0  0  0  0  0  0  0
   -4.5296    4.1393   -0.0000 C   0  0  0  0  0  0  0  0  0  0  0  0
   -4.5414    1.1472   -0.0000 C   0  0  0  0  0  0  0  0  0  0  0  0
   -7.1315    2.6492   -0.0000 C   0  0  0  0  0  0  0  0  0  0  0  0
   -3.2523    4.8962   -0.0000 O   0  0  0  0  0  0  0  0  0  0  0  0
   -5.8542    4.9081   -0.0000 N   0  0  0  0  0  0  0  0  0  0  0  0
   -5.8542    0.4258   -0.0000 C   0  0  0  0  0  0  0  0  0  0  0  0
   -7.1433    4.1630   -0.0000 C   0  0  0  0  0  0  0  0  0  0  0  0
   -8.4324    1.9159   -0.0000 C   0  0  0  0  0  0  0  0  0  0  0  0
   -5.8660    6.4101   -0.0000 C   0  0  0  0  0  0  0  0  0  0  0  0
   -8.4561    4.9081   -0.0000 C   0  0  0  0  0  0  0  0  0  0  0  0
   -9.7333    2.6728   -0.0000 C   0  0  0  0  0  0  0  0  0  0  0  0
   -4.5887    7.1670   -0.0000 C   0  0  0  0  0  0  0  0  0  0  0  0
   -9.7452    4.1748   -0.0000 C   0  0  0  0  0  0  0  0  0  0  0  0
   -4.6006    8.6689   -0.0000 C   0  0  0  0  0  0  0  0  0  0  0  0
  -11.0343    4.9317   -0.0000 C   0  0  0  0  0  0  0  0  0  0  0  0
   -3.3233    9.4259   -0.0000 O   0  0  0  0  0  0  0  0  0  0  0  0
  -12.3470    4.1985   -0.0000 C   0  0  0  0  0  0  0  0  0  0  0  0
  -11.0461    6.4455   -0.0000 C   0  0  0  0  0  0  0  0  0  0  0  0
   -3.3351   10.9278   -0.0000 C   0  0  0  0  0  0  0  0  0  0  0  0
  -13.6480    4.9554   -0.0000 N   0  0  0  0  0  0  0  0  0  0  0  0
  -12.3589    2.7201   -0.0000 N   0  0  0  0  0  0  0  0  0  0  0  0
  -12.3589    7.1906   -0.0000 N   0  0  0  0  0  0  0  0  0  0  0  0
   -9.7688    7.2024   -0.0000 C   0  0  0  0  0  0  0  0  0  0  0  0
  -13.6598    6.4574   -0.0000 C   0  0  0  0  0  0  0  0  0  0  0  0
   -9.7925    8.7044   -0.0000 C   0  0  0  0  0  0  0  0  0  0  0  0
  -14.9726    7.2143   -0.0000 N   0  0  0  0  0  0  0  0  0  0  0  0
  1  2  1  0
  2  3  2  0
  2  4  1  0
  3  5  1  0
  4  6  2  0
  5  7  1  0
  5  8  2  0
  6  9  1  0
  9 10  1  0
  9 11  1  0
  9 12  1  0
 10 13  1  0
 11 14  2  0
 11 15  1  0
 12 16  1  0
 13 17  2  0
 13 18  1  0
 15 19  1  0
 17 20  1  0
 18 21  2  0
 19 22  1  0
 20 23  2  0
 22 24  1  0
 23 25  1  0
 24 26  1  0
 25 27  2  0
 25 28  1  0
 26 29  1  0
 27 30  1  0
 27 31  1  0
 28 32  2  0
 28 33  1  0
 30 34  2  0
 33 35  1  0
 34 36  1  0
  6  8  1  0
 15 17  1  0
 21 23  1  0
 32 34  1  0
M  END
>  <MolRegNo>  (1) 
405791

>  <m>  (1) 
=

>  <Value>  (1) 
3300

>  <Unit>  (1) 
nM

>  <Type>  (1) 
IC50

>  <pValue>  (1) 
5.48

>  <Ligand Efficiency>  (1) 
0

>  <Binding Efficiency>  (1) 
0

>  <Surface Efficiency>  (1) 
0

>  <Assay Index>  (1) 
297171

>  <Assay Category>  (1) 


>  <Assay Organism>  (1) 


>  <Target ID>  (1) 
11365

>  <Target Name>  (1) 
Cytochrome P450 2D6

>  <Target Organism>  (1) 
Homo sapiens

>  <Target Description>  (1) 
Target is a single protein chain

>  <Sequence Accession>  (1) 
P10635

>  <Reference>  (1) 
Bioorg Med Chem 15 (17), 5912-5949 (2007)

>  <Pubmed ID>  (1) 
17574423

>  <DOI>  (1) 
10.1016/j.bmc.2007.05.069

$$$$
