4wnv_ligand_398
     RDKit          2D

 25 28  0  0  0  0  0  0  0  0999 V2000
    0.0000   -0.0000   -0.0000 O   0  0  0  0  0  0  0  0  0  0  0  0
   -0.0119   -1.4839   -0.0000 C   0  0  0  0  0  0  0  0  0  0  0  0
   -1.3058    0.7598   -0.0000 C   0  0  0  0  0  0  0  0  0  0  0  0
   -1.3177   -2.2199   -0.0000 C   0  0  0  0  0  0  0  0  0  0  0  0
   -2.6235    0.0237   -0.0000 C   0  0  0  0  0  0  0  0  0  0  0  0
   -2.6235   -1.4602   -0.0000 C   0  0  0  0  0  0  0  0  0  0  0  0
   -3.9294   -2.2080   -0.0000 N   0  0  0  0  0  0  0  0  0  0  0  0
   -3.9294   -3.6919   -0.0000 C   0  0  0  0  0  0  0  0  0  0  0  0
   -5.2470   -1.4602   -0.0000 C   0  0  0  0  0  0  0  0  0  0  0  0
   -2.7185   -4.5585   -0.0000 C   0  0  0  0  0  0  0  0  0  0  0  0
   -5.1402   -4.5704   -0.0000 C   0  0  0  0  0  0  0  0  0  0  0  0
   -6.5529   -2.2080   -0.0000 C   0  0  0  0  0  0  0  0  0  0  0  0
   -3.1815   -5.9712   -0.0000 N   0  0  0  0  0  0  0  0  0  0  0  0
   -4.6772   -5.9831   -0.0000 C   0  0  0  0  0  0  0  0  0  0  0  0
   -7.8706   -1.4602   -0.0000 C   0  0  0  0  0  0  0  0  0  0  0  0
   -6.5647   -3.7038   -0.0000 C   0  0  0  0  0  0  0  0  0  0  0  0
   -7.8943    0.0475   -0.0000 C   0  0  0  0  0  0  0  0  0  0  0  0
   -9.1645   -2.1962   -0.0000 C   0  0  0  0  0  0  0  0  0  0  0  0
   -7.8824   -4.4398   -0.0000 C   0  0  0  0  0  0  0  0  0  0  0  0
   -6.6122    0.8072   -0.0000 C   0  0  0  0  0  0  0  0  0  0  0  0
   -9.2120    0.7954   -0.0000 C   0  0  0  0  0  0  0  0  0  0  0  0
   -9.1764   -3.6801   -0.0000 C   0  0  0  0  0  0  0  0  0  0  0  0
   -6.6360    2.3149   -0.0000 C   0  0  0  0  0  0  0  0  0  0  0  0
   -9.2358    2.3030   -0.0000 C   0  0  0  0  0  0  0  0  0  0  0  0
   -7.9537    3.0746   -0.0000 C   0  0  0  0  0  0  0  0  0  0  0  0
  1  2  1  0
  1  3  1  0
  2  4  1  0
  3  5  1  0
  4  6  1  0
  6  7  1  0
  8  7  1  6
  7  9  1  0
  8 10  1  0
  8 11  1  0
  9 12  1  0
 10 13  1  0
 11 14  1  0
 12 15  1  0
 12 16  2  0
 15 17  1  0
 15 18  2  0
 16 19  1  0
 17 20  2  0
 17 21  1  0
 18 22  1  0
 20 23  1  0
 21 24  2  0
 23 25  2  0
  5  6  1  0
 13 14  1  0
 19 22  2  0
 24 25  1  0
M  END
>  <MolRegNo>  (1) 
412795

>  <m>  (1) 
=

>  <Value>  (1) 
100

>  <Unit>  (1) 
nM

>  <Type>  (1) 
IC50

>  <pValue>  (1) 
7

>  <Ligand Efficiency>  (1) 
0

>  <Binding Efficiency>  (1) 
0

>  <Surface Efficiency>  (1) 
0

>  <Assay Index>  (1) 
303145

>  <Assay Category>  (1) 


>  <Assay Organism>  (1) 
Homo sapiens

>  <Target ID>  (1) 
11365

>  <Target Name>  (1) 
Cytochrome P450 2D6

>  <Target Organism>  (1) 
Homo sapiens

>  <Target Description>  (1) 
Target is a single protein chain

>  <Sequence Accession>  (1) 
P10635

>  <Reference>  (1) 
Bioorg Med Chem Lett 17 (7), 2022-2025 (2007)

>  <Pubmed ID>  (1) 
17267217

>  <DOI>  (1) 
10.1016/j.bmcl.2007.01.020

$$$$
