4wnv_ligand_558
     RDKit          2D

 19 20  0  0  1  0  0  0  0  0999 V2000
    0.0000   -0.0000   -0.0000 O   0  0  0  0  0  0  0  0  0  0  0  0
   -1.2991   -0.7509   -0.0000 C   0  0  0  0  0  0  0  0  0  0  0  0
    1.2991   -0.7270   -0.0000 C   0  0  0  0  0  0  0  0  0  0  0  0
   -2.6220    0.0119   -0.0000 C   0  0  0  0  0  0  0  0  0  0  0  0
   -1.3110   -2.2526   -0.0000 C   0  0  0  0  0  0  0  0  0  0  0  0
    1.2872   -2.2168   -0.0000 C   0  0  0  0  0  0  0  0  0  0  0  0
    2.5863    0.0358   -0.0000 C   0  0  0  0  0  0  0  0  0  0  0  0
   -3.9330   -0.7270   -0.0000 C   0  0  0  0  0  0  0  0  0  0  0  0
   -2.6459    1.5255   -0.0000 C   0  0  0  0  0  0  0  0  0  0  0  0
   -2.6339   -2.9915   -0.0000 C   0  0  0  0  0  0  0  0  0  0  0  0
   -0.0119   -2.9557   -0.0000 C   0  0  0  0  0  0  0  0  0  0  0  0
    2.5863   -2.9438   -0.0000 C   0  0  0  0  0  0  0  0  0  0  0  0
    3.8734   -0.6913   -0.0000 C   0  0  0  0  0  0  0  0  0  0  0  0
   -3.9450   -2.2287   -0.0000 C   0  0  0  0  0  0  0  0  0  0  0  0
   -0.0238   -4.4455   -0.0000 C   0  0  0  0  0  0  0  0  0  0  0  0
    2.5863   -4.4336   -0.0000 C   0  0  0  0  0  0  0  0  0  0  0  0
    5.1606    0.0834   -0.0000 N   0  0  0  0  0  0  0  0  0  0  0  0
    1.2753   -5.1845   -0.0000 C   0  0  0  0  0  0  0  0  0  0  0  0
    6.4597   -0.6555   -0.0000 C   0  0  0  0  0  0  0  0  0  0  0  0
  1  2  1  0
  3  1  1  0
  2  4  2  0
  2  5  1  0
  3  6  1  0
  3  7  1  6
  4  8  1  0
  4  9  1  0
  5 10  2  0
  6 11  2  0
  6 12  1  0
  7 13  1  0
  8 14  2  0
 11 15  1  0
 12 16  2  0
 13 17  1  0
 15 18  2  0
 17 19  1  0
 10 14  1  0
 16 18  1  0
M  END
>  <MolRegNo>  (1) 
27342

>  <m>  (1) 
=

>  <Value>  (1) 
2000

>  <Unit>  (1) 
nM

>  <Type>  (1) 
IC50

>  <pValue>  (1) 
5.7

>  <Ligand Efficiency>  (1) 
0

>  <Binding Efficiency>  (1) 
0

>  <Surface Efficiency>  (1) 
0

>  <Assay Index>  (1) 
358939

>  <Assay Category>  (1) 


>  <Assay Organism>  (1) 


>  <Target ID>  (1) 
11365

>  <Target Name>  (1) 
Cytochrome P450 2D6

>  <Target Organism>  (1) 
Homo sapiens

>  <Target Description>  (1) 
Target is a single protein chain

>  <Sequence Accession>  (1) 
P10635

>  <Reference>  (1) 
Bioorg Med Chem Lett 18 (16), 4491-4494 (2008)

>  <Pubmed ID>  (1) 
18672364

>  <DOI>  (1) 
10.1016/j.bmcl.2008.07.049

$$$$
