4wnv_ligand_103
     RDKit          2D

 13 14  0  0  0  0  0  0  0  0999 V2000
    0.0000   -0.0000   -0.0000 S   0  0  0  0  0  0  0  0  0  0  0  0
   -0.1436    1.5080   -0.0000 C   0  0  0  0  0  0  0  0  0  0  0  0
    1.4721   -0.3112   -0.0000 C   0  0  0  0  0  0  0  0  0  0  0  0
   -1.4721    2.2859   -0.0000 C   0  0  0  0  0  0  0  0  0  0  0  0
    1.2207    2.1423   -0.0000 C   0  0  0  0  0  0  0  0  0  0  0  0
    2.2261    1.0173   -0.0000 C   0  0  0  0  0  0  0  0  0  0  0  0
    2.0705   -1.6875   -0.0000 C   0  0  0  0  0  0  0  0  0  0  0  0
   -2.8005    1.5319   -0.0000 C   0  0  0  0  0  0  0  0  0  0  0  0
   -1.4840    3.8178   -0.0000 C   0  0  0  0  0  0  0  0  0  0  0  0
    1.3404   -2.6569   -0.0000 N   0  0  0  0  0  0  0  0  0  0  0  0
   -4.1290    2.2979   -0.0000 N   0  0  0  0  0  0  0  0  0  0  0  0
   -2.8125    4.5838   -0.0000 C   0  0  0  0  0  0  0  0  0  0  0  0
   -4.1410    3.8298   -0.0000 C   0  0  0  0  0  0  0  0  0  0  0  0
  1  2  1  0
  1  3  1  0
  2  4  1  0
  2  5  2  0
  3  6  2  0
  3  7  1  0
  4  8  2  0
  4  9  1  0
  7 10  1  0
  8 11  1  0
  9 12  2  0
 11 13  2  0
  5  6  1  0
 12 13  1  0
M  END
>  <MolRegNo>  (1) 
299633

>  <m>  (1) 
=

>  <Value>  (1) 
168000

>  <Unit>  (1) 
nM

>  <Type>  (1) 
IC50

>  <pValue>  (1) 
0

>  <Ligand Efficiency>  (1) 
0

>  <Binding Efficiency>  (1) 
0

>  <Surface Efficiency>  (1) 
0

>  <Assay Index>  (1) 
238570

>  <Assay Category>  (1) 


>  <Assay Organism>  (1) 
Homo sapiens

>  <Target ID>  (1) 
11365

>  <Target Name>  (1) 
Cytochrome P450 2D6

>  <Target Organism>  (1) 
Homo sapiens

>  <Target Description>  (1) 
Target is a single protein chain

>  <Sequence Accession>  (1) 
P10635

>  <Reference>  (1) 
J Med Chem 48 (1), 224-239 (2005)

>  <Pubmed ID>  (1) 
15634016

>  <DOI>  (1) 
10.1021/jm049696n

$$$$
