4wnv_ligand_462
     RDKit          2D

 34 37  0  0  1  0  0  0  0  0999 V2000
    0.0000   -0.0000   -0.0000 S   0  0  0  0  0  0  0  0  0  0  0  0
    1.2048    0.8947   -0.0000 C   0  0  0  0  0  0  0  0  0  0  0  0
    0.4533   -1.4196   -0.0000 C   0  0  0  0  0  0  0  0  0  0  0  0
    2.4097    0.0358   -0.0000 N   0  0  0  0  0  0  0  0  0  0  0  0
    1.1929    2.4097   -0.0000 N   0  0  0  0  0  0  0  0  0  0  0  0
    1.9444   -1.4076   -0.0000 C   0  0  0  0  0  0  0  0  0  0  0  0
   -0.3340   -2.6841   -0.0000 C   0  0  0  0  0  0  0  0  0  0  0  0
   -0.1193    3.1851   -0.0000 C   0  0  0  0  0  0  0  0  0  0  0  0
    2.8153   -2.6125   -0.0000 C   0  0  0  0  0  0  0  0  0  0  0  0
   -1.8371   -2.6483   -0.0000 O   0  0  0  0  0  0  0  0  0  0  0  0
    0.3817   -3.9843   -0.0000 C   0  0  0  0  0  0  0  0  0  0  0  0
   -1.4315    2.4455   -0.0000 O   0  0  0  0  0  0  0  0  0  0  0  0
   -0.1312    4.7001   -0.0000 N   0  0  0  0  0  0  0  0  0  0  0  0
   -1.4434    5.4635   -0.0000 C   0  0  0  0  0  0  0  0  0  0  0  0
   -1.4554    6.9785   -0.0000 C   0  0  0  0  0  0  0  0  0  0  0  0
   -2.7556    4.7359   -0.0000 C   0  0  0  0  0  0  0  0  0  0  0  0
   -2.7676    7.7539   -0.0000 C   0  0  0  0  0  0  0  0  0  0  0  0
   -0.1551    7.7420   -0.0000 C   0  0  0  0  0  0  0  0  0  0  0  0
   -4.0678    5.4874   -0.0000 N   0  0  0  0  0  0  0  0  0  0  0  0
   -4.0798    7.0024   -0.0000 C   0  0  0  0  0  0  0  0  0  0  0  0
    1.1333    6.9905   -0.0000 N   0  0  0  0  0  0  0  0  0  0  0  0
    2.4216    7.7539   -0.0000 C   0  0  0  0  0  0  0  0  0  0  0  0
    1.1213    5.4874   -0.0000 C   0  0  0  0  0  0  0  0  0  0  0  0
    3.7100    7.0024   -0.0000 C   0  0  0  0  0  0  0  0  0  0  0  0
    2.4097    4.7478   -0.0000 C   0  0  0  0  0  0  0  0  0  0  0  0
    3.6861    5.5113   -0.0000 C   0  0  0  0  0  0  0  0  0  0  0  0
    5.0102    7.7659   -0.0000 C   0  0  0  0  0  0  0  0  0  0  0  0
    6.2986    7.0143   -0.0000 C   0  0  0  0  0  0  0  0  0  0  0  0
    6.2628    5.5232   -0.0000 C   0  0  0  0  0  0  0  0  0  0  0  0
    7.5869    7.7778   -0.0000 C   0  0  0  0  0  0  0  0  0  0  0  0
    7.5511    4.7836   -0.0000 C   0  0  0  0  0  0  0  0  0  0  0  0
    8.8753    7.0263   -0.0000 C   0  0  0  0  0  0  0  0  0  0  0  0
    8.8514    5.5351   -0.0000 C   0  0  0  0  0  0  0  0  0  0  0  0
   10.1398    4.7955   -0.0000 F   0  0  0  0  0  0  0  0  0  0  0  0
  1  2  1  0
  1  3  1  0
  2  4  2  0
  2  5  1  0
  3  6  2  0
  3  7  1  0
  5  8  1  0
  6  9  1  0
  7 10  2  0
  7 11  1  0
  8 12  2  0
  8 13  1  0
 14 13  1  6
 14 15  1  0
 14 16  1  0
 15 17  1  0
 15 18  1  1
 16 19  1  0
 17 20  1  0
 18 21  1  0
 21 22  1  0
 21 23  1  0
 22 24  1  0
 23 25  1  0
 24 26  1  0
 24 27  1  6
 27 28  1  0
 28 29  2  0
 28 30  1  0
 29 31  1  0
 30 32  2  0
 31 33  2  0
 33 34  1  0
  4  6  1  0
 19 20  1  0
 25 26  1  0
 32 33  1  0
M  END
>  <MolRegNo>  (1) 
421468

>  <m>  (1) 
=

>  <Value>  (1) 
56000

>  <Unit>  (1) 
nM

>  <Type>  (1) 
IC50

>  <pValue>  (1) 
4.25

>  <Ligand Efficiency>  (1) 
0

>  <Binding Efficiency>  (1) 
0

>  <Surface Efficiency>  (1) 
0

>  <Assay Index>  (1) 
307824

>  <Assay Category>  (1) 


>  <Assay Organism>  (1) 
Homo sapiens

>  <Target ID>  (1) 
11365

>  <Target Name>  (1) 
Cytochrome P450 2D6

>  <Target Organism>  (1) 
Homo sapiens

>  <Target Description>  (1) 
Target is a single protein chain

>  <Sequence Accession>  (1) 
P10635

>  <Reference>  (1) 
Bioorg Med Chem Lett 17 (11), 2992-2997 (2007)

>  <Pubmed ID>  (1) 
17418570

>  <DOI>  (1) 
10.1016/j.bmcl.2007.03.065

$$$$
