4wnv_ligand_908
     RDKit          2D

 27 29  0  0  0  0  0  0  0  0999 V2000
    0.0000   -0.0000   -0.0000 Cl  0  0  0  0  0  0  0  0  0  0  0  0
   -0.0119    1.5102   -0.0000 C   0  0  0  0  0  0  0  0  0  0  0  0
   -1.3199    2.2712   -0.0000 C   0  0  0  0  0  0  0  0  0  0  0  0
    1.2842    2.2712   -0.0000 C   0  0  0  0  0  0  0  0  0  0  0  0
   -2.6279    1.5339   -0.0000 C   0  0  0  0  0  0  0  0  0  0  0  0
   -1.3318    3.7932   -0.0000 C   0  0  0  0  0  0  0  0  0  0  0  0
    1.2723    3.7932   -0.0000 C   0  0  0  0  0  0  0  0  0  0  0  0
   -3.9359    0.7967   -0.0000 N   0  0  0  0  0  0  0  0  0  0  0  0
   -0.0476    4.5543   -0.0000 C   0  0  0  0  0  0  0  0  0  0  0  0
    2.5566    4.5543   -0.0000 N   0  0  0  0  0  0  0  0  0  0  0  0
    3.8408    3.8170   -0.0000 C   0  0  0  0  0  0  0  0  0  0  0  0
    2.5447    6.0644   -0.0000 C   0  0  0  0  0  0  0  0  0  0  0  0
    3.9954    2.3306   -0.0000 C   0  0  0  0  0  0  0  0  0  0  0  0
    5.2083    4.4354   -0.0000 C   0  0  0  0  0  0  0  0  0  0  0  0
    3.8289    6.8255   -0.0000 C   0  0  0  0  0  0  0  0  0  0  0  0
    5.4461    2.0334   -0.0000 N   0  0  0  0  0  0  0  0  0  0  0  0
    6.2071    3.3414   -0.0000 C   0  0  0  0  0  0  0  0  0  0  0  0
    3.8051    8.3237   -0.0000 C   0  0  0  0  0  0  0  0  0  0  0  0
    5.1132    6.0882   -0.0000 C   0  0  0  0  0  0  0  0  0  0  0  0
    6.0407    0.6778   -0.0000 S   0  0  0  0  0  0  0  0  0  0  0  0
    2.4852    9.0729   -0.0000 F   0  0  0  0  0  0  0  0  0  0  0  0
    5.0775    9.0967   -0.0000 C   0  0  0  0  0  0  0  0  0  0  0  0
    6.3974    6.8492   -0.0000 C   0  0  0  0  0  0  0  0  0  0  0  0
    5.2677   -0.6064   -0.0000 O   0  0  0  0  0  0  0  0  0  0  0  0
    4.5305    0.7016   -0.0000 O   0  0  0  0  0  0  0  0  0  0  0  0
    7.5270    0.5351   -0.0000 C   0  0  0  0  0  0  0  0  0  0  0  0
    6.3736    8.3594   -0.0000 C   0  0  0  0  0  0  0  0  0  0  0  0
  1  2  1  0
  2  3  2  0
  2  4  1  0
  3  5  1  0
  3  6  1  0
  4  7  2  0
  5  8  3  0
  6  9  2  0
  7 10  1  0
 11 10  1  1
 10 12  1  0
 11 13  1  0
 11 14  1  0
 12 15  1  0
 13 16  1  0
 14 17  1  0
 15 18  2  0
 15 19  1  0
 16 20  1  0
 18 21  1  0
 18 22  1  0
 19 23  2  0
 20 24  2  0
 20 25  2  0
 20 26  1  0
 22 27  2  0
  7  9  1  0
 16 17  1  0
 23 27  1  0
M  END
>  <MolRegNo>  (1) 
590210

>  <m>  (1) 
=

>  <Value>  (1) 
18000

>  <Unit>  (1) 
nM

>  <Type>  (1) 
IC50

>  <pValue>  (1) 
4.75

>  <Ligand Efficiency>  (1) 
0

>  <Binding Efficiency>  (1) 
0

>  <Surface Efficiency>  (1) 
0

>  <Assay Index>  (1) 
452357

>  <Assay Category>  (1) 


>  <Assay Organism>  (1) 


>  <Target ID>  (1) 
11365

>  <Target Name>  (1) 
Cytochrome P450 2D6

>  <Target Organism>  (1) 
Homo sapiens

>  <Target Description>  (1) 
Target is a single protein chain

>  <Sequence Accession>  (1) 
P10635

>  <Reference>  (1) 
Bioorg Med Chem Lett 20 (1), 371-374 (2010)

>  <Pubmed ID>  (1) 
19926282

>  <DOI>  (1) 
10.1016/j.bmcl.2009.10.092

$$$$
