4wnv_ligand_94
     RDKit          2D

 12 13  0  0  0  0  0  0  0  0999 V2000
    0.0000   -0.0000   -0.0000 N   0  0  0  0  0  0  0  0  0  0  0  0
    1.2834    0.7605   -0.0000 C   0  0  0  0  0  0  0  0  0  0  0  0
   -1.2953    0.7605   -0.0000 C   0  0  0  0  0  0  0  0  0  0  0  0
    1.2715    2.2815   -0.0000 C   0  0  0  0  0  0  0  0  0  0  0  0
   -1.3071    2.2815   -0.0000 C   0  0  0  0  0  0  0  0  0  0  0  0
    2.5549    3.0421   -0.0000 N   0  0  0  0  0  0  0  0  0  0  0  0
   -0.0356    3.0421   -0.0000 C   0  0  0  0  0  0  0  0  0  0  0  0
    3.9214    2.4598   -0.0000 C   0  0  0  0  0  0  0  0  0  0  0  0
    2.6975    4.5512   -0.0000 C   0  0  0  0  0  0  0  0  0  0  0  0
    4.8958    3.5768   -0.0000 N   0  0  0  0  0  0  0  0  0  0  0  0
    4.1472    4.8839   -0.0000 C   0  0  0  0  0  0  0  0  0  0  0  0
    4.7413    6.2624   -0.0000 C   0  0  0  0  0  0  0  0  0  0  0  0
  1  2  2  0
  1  3  1  0
  2  4  1  0
  3  5  2  0
  4  6  1  0
  4  7  2  0
  6  8  1  0
  6  9  1  0
  8 10  2  0
  9 11  2  0
 11 12  1  0
  5  7  1  0
 10 11  1  0
M  END
>  <MolRegNo>  (1) 
299560

>  <m>  (1) 
=

>  <Value>  (1) 
297000

>  <Unit>  (1) 
nM

>  <Type>  (1) 
IC50

>  <pValue>  (1) 
0

>  <Ligand Efficiency>  (1) 
0

>  <Binding Efficiency>  (1) 
0

>  <Surface Efficiency>  (1) 
0

>  <Assay Index>  (1) 
238570

>  <Assay Category>  (1) 


>  <Assay Organism>  (1) 
Homo sapiens

>  <Target ID>  (1) 
11365

>  <Target Name>  (1) 
Cytochrome P450 2D6

>  <Target Organism>  (1) 
Homo sapiens

>  <Target Description>  (1) 
Target is a single protein chain

>  <Sequence Accession>  (1) 
P10635

>  <Reference>  (1) 
J Med Chem 48 (1), 224-239 (2005)

>  <Pubmed ID>  (1) 
15634016

>  <DOI>  (1) 
10.1021/jm049696n

$$$$
