4wnv_ligand_1010
     RDKit          2D

 24 26  0  0  0  0  0  0  0  0999 V2000
    0.0000   -0.0000   -0.0000 S   0  0  0  0  0  0  0  0  0  0  0  0
   -1.4551   -0.4532   -0.0000 C   0  0  0  0  0  0  0  0  0  0  0  0
    0.8826   -1.2047   -0.0000 C   0  0  0  0  0  0  0  0  0  0  0  0
   -1.4551   -1.9561   -0.0000 C   0  0  0  0  0  0  0  0  0  0  0  0
   -2.7672    0.2982   -0.0000 C   0  0  0  0  0  0  0  0  0  0  0  0
   -0.0119   -2.4332   -0.0000 C   0  0  0  0  0  0  0  0  0  0  0  0
    2.3736   -1.1927   -0.0000 C   0  0  0  0  0  0  0  0  0  0  0  0
   -2.7672   -2.6956   -0.0000 C   0  0  0  0  0  0  0  0  0  0  0  0
   -4.0672   -0.4413   -0.0000 C   0  0  0  0  0  0  0  0  0  0  0  0
    0.2624   -3.8883   -0.0000 C   0  0  0  0  0  0  0  0  0  0  0  0
    3.1131   -2.4809   -0.0000 C   0  0  0  0  0  0  0  0  0  0  0  0
   -4.0792   -1.9322   -0.0000 C   0  0  0  0  0  0  0  0  0  0  0  0
   -1.0615   -4.6159   -0.0000 C   0  0  0  0  0  0  0  0  0  0  0  0
    1.6341   -4.4489   -0.0000 C   0  0  0  0  0  0  0  0  0  0  0  0
    4.6040   -2.4690   -0.0000 N   0  0  0  0  0  0  0  0  0  0  0  0
   -2.3616   -3.8406   -0.0000 N   0  0  0  0  0  0  0  0  0  0  0  0
   -1.0854   -6.0949   -0.0000 C   0  0  0  0  0  0  0  0  0  0  0  0
    5.3435   -3.7571   -0.0000 C   0  0  0  0  0  0  0  0  0  0  0  0
    5.3435   -1.1570   -0.0000 C   0  0  0  0  0  0  0  0  0  0  0  0
   -3.6736   -4.5563   -0.0000 C   0  0  0  0  0  0  0  0  0  0  0  0
    0.2028   -6.8463   -0.0000 O   0  0  0  0  0  0  0  0  0  0  0  0
   -2.3974   -6.8225   -0.0000 C   0  0  0  0  0  0  0  0  0  0  0  0
   -3.7094   -6.0472   -0.0000 C   0  0  0  0  0  0  0  0  0  0  0  0
    0.1789   -8.3373   -0.0000 C   0  0  0  0  0  0  0  0  0  0  0  0
  1  2  1  0
  1  3  1  0
  2  4  2  0
  2  5  1  0
  3  6  2  0
  3  7  1  0
  4  8  1  0
  5  9  2  0
  6 10  1  0
  7 11  1  0
  8 12  2  0
 10 13  1  0
 10 14  1  6
 11 15  1  0
 13 16  2  0
 13 17  1  0
 15 18  1  0
 15 19  1  0
 16 20  1  0
 17 21  1  0
 17 22  2  0
 20 23  2  0
 21 24  1  0
  4  6  1  0
  9 12  1  0
 22 23  1  0
M  END
>  <MolRegNo>  (1) 
620009

>  <m>  (1) 
=

>  <Value>  (1) 
9500

>  <Unit>  (1) 
nM

>  <Type>  (1) 
IC50

>  <pValue>  (1) 
5.02

>  <Ligand Efficiency>  (1) 
0

>  <Binding Efficiency>  (1) 
0

>  <Surface Efficiency>  (1) 
0

>  <Assay Index>  (1) 
469728

>  <Assay Category>  (1) 


>  <Assay Organism>  (1) 


>  <Target ID>  (1) 
11365

>  <Target Name>  (1) 
Cytochrome P450 2D6

>  <Target Organism>  (1) 
Homo sapiens

>  <Target Description>  (1) 
Target is a single protein chain

>  <Sequence Accession>  (1) 
P10635

>  <Reference>  (1) 
Bioorg Med Chem Lett 20 (7), 2316-2320 (2010)

>  <Pubmed ID>  (1) 
20188547

>  <DOI>  (1) 
10.1016/j.bmcl.2010.01.134

$$$$
