4wnv_ligand_297
     RDKit          2D

 36 39  0  0  1  0  0  0  0  0999 V2000
    0.0000   -0.0000   -0.0000 O   0  0  0  0  0  0  0  0  0  0  0  0
   -0.9098   -1.1933   -0.0000 C   0  0  0  0  0  0  0  0  0  0  0  0
   -2.4103   -1.0043   -0.0000 N   0  0  0  0  0  0  0  0  0  0  0  0
   -0.3308   -2.5639   -0.0000 N   0  0  0  0  0  0  0  0  0  0  0  0
   -3.4383   -2.0913   -0.0000 C   0  0  0  0  0  0  0  0  0  0  0  0
   -3.1429    0.3190   -0.0000 C   0  0  0  0  0  0  0  0  0  0  0  0
    1.1106   -2.8829   -0.0000 C   0  0  0  0  0  0  0  0  0  0  0  0
   -1.1106   -3.8400   -0.0000 C   0  0  0  0  0  0  0  0  0  0  0  0
   -4.8088   -1.4533   -0.0000 C   0  0  0  0  0  0  0  0  0  0  0  0
   -4.6198    0.0473   -0.0000 C   0  0  0  0  0  0  0  0  0  0  0  0
    1.2406   -4.3598   -0.0000 C   0  0  0  0  0  0  0  0  0  0  0  0
   -0.1300   -4.9506   -0.0000 C   0  0  0  0  0  0  0  0  0  0  0  0
   -6.1321   -2.1740   -0.0000 N   0  0  0  0  0  0  0  0  0  0  0  0
    2.5167   -5.1160   -0.0000 N   0  0  0  0  0  0  0  0  0  0  0  0
   -7.4318   -1.3942   -0.0000 C   0  0  0  0  0  0  0  0  0  0  0  0
   -6.2148   -3.6509   -0.0000 C   0  0  0  0  0  0  0  0  0  0  0  0
    3.8045   -4.3598   -0.0000 C   0  0  0  0  0  0  0  0  0  0  0  0
   -7.4200    0.1182   -0.0000 O   0  0  0  0  0  0  0  0  0  0  0  0
   -8.7551   -2.1149   -0.0000 C   0  0  0  0  0  0  0  0  0  0  0  0
    5.0924   -5.1042   -0.0000 C   0  0  0  0  0  0  0  0  0  0  0  0
    3.7927   -2.8475   -0.0000 C   0  0  0  0  0  0  0  0  0  0  0  0
  -10.0548   -1.3351   -0.0000 C   0  0  0  0  0  0  0  0  0  0  0  0
   -8.7788   -3.5919   -0.0000 C   0  0  0  0  0  0  0  0  0  0  0  0
    6.3803   -4.3480   -0.0000 O   0  0  0  0  0  0  0  0  0  0  0  0
  -11.3781   -2.0559   -0.0000 C   0  0  0  0  0  0  0  0  0  0  0  0
  -10.0903   -4.3126   -0.0000 C   0  0  0  0  0  0  0  0  0  0  0  0
    7.6681   -5.0924   -0.0000 C   0  0  0  0  0  0  0  0  0  0  0  0
  -11.4136   -3.5446   -0.0000 C   0  0  0  0  0  0  0  0  0  0  0  0
  -12.7369   -4.2653   -0.0000 C   0  0  0  0  0  0  0  0  0  0  0  0
  -14.0248   -3.4855   -0.0000 C   0  0  0  0  0  0  0  0  0  0  0  0
  -12.7605   -5.7541   -0.0000 C   0  0  0  0  0  0  0  0  0  0  0  0
  -15.3481   -4.2062   -0.0000 C   0  0  0  0  0  0  0  0  0  0  0  0
  -14.0720   -6.4748   -0.0000 C   0  0  0  0  0  0  0  0  0  0  0  0
  -15.3835   -5.6950   -0.0000 C   0  0  0  0  0  0  0  0  0  0  0  0
  -16.7068   -6.4157   -0.0000 C   0  0  0  0  0  0  0  0  0  0  0  0
  -18.0065   -5.6359   -0.0000 C   0  0  0  0  0  0  0  0  0  0  0  0
  1  2  2  0
  2  3  1  0
  2  4  1  0
  3  5  1  0
  3  6  1  0
  4  7  1  0
  4  8  1  0
  5  9  1  0
  6 10  1  0
  7 11  1  0
  8 12  1  0
  9 13  1  1
 11 14  1  6
 13 15  1  0
 13 16  1  0
 17 14  1  0
 15 18  2  0
 15 19  1  0
 17 20  1  0
 17 21  1  1
 19 22  2  0
 19 23  1  0
 20 24  1  0
 22 25  1  0
 23 26  2  0
 24 27  1  0
 25 28  2  0
 28 29  1  0
 29 30  2  0
 29 31  1  0
 30 32  1  0
 31 33  2  0
 32 34  2  0
 34 35  1  0
 35 36  1  0
  9 10  1  0
 11 12  1  0
 26 28  1  0
 33 34  1  0
M  END
>  <MolRegNo>  (1) 
359448

>  <m>  (1) 
=

>  <Value>  (1) 
24500

>  <Unit>  (1) 
nM

>  <Type>  (1) 
IC50

>  <pValue>  (1) 
4.61

>  <Ligand Efficiency>  (1) 
0

>  <Binding Efficiency>  (1) 
0

>  <Surface Efficiency>  (1) 
0

>  <Assay Index>  (1) 
268140

>  <Assay Category>  (1) 


>  <Assay Organism>  (1) 
Homo sapiens

>  <Target ID>  (1) 
11365

>  <Target Name>  (1) 
Cytochrome P450 2D6

>  <Target Organism>  (1) 
Homo sapiens

>  <Target Description>  (1) 
Target is a single protein chain

>  <Sequence Accession>  (1) 
P10635

>  <Reference>  (1) 
Bioorg Med Chem Lett 16 (18), 4922-4930 (2006)

>  <Pubmed ID>  (1) 
16824755

>  <DOI>  (1) 
10.1016/j.bmcl.2006.06.049

$$$$
