4wnv_ligand_317
     RDKit          2D

 24 26  0  0  0  0  0  0  0  0999 V2000
    0.0000   -0.0000   -0.0000 O   0  0  0  0  0  0  0  0  0  0  0  0
   -0.0119    1.5085   -0.0000 C   0  0  0  0  0  0  0  0  0  0  0  0
   -1.3184    2.2687   -0.0000 O   0  0  0  0  0  0  0  0  0  0  0  0
    1.2709    2.2687   -0.0000 N   0  0  0  0  0  0  0  0  0  0  0  0
   -2.6250    1.5322   -0.0000 C   0  0  0  0  0  0  0  0  0  0  0  0
    2.5537    1.5204   -0.0000 C   0  0  0  0  0  0  0  0  0  0  0  0
    1.2472    3.7772   -0.0000 C   0  0  0  0  0  0  0  0  0  0  0  0
   -3.9316    2.2924   -0.0000 C   0  0  0  0  0  0  0  0  0  0  0  0
    3.8365    2.2805   -0.0000 C   0  0  0  0  0  0  0  0  0  0  0  0
    2.5419    4.5373   -0.0000 C   0  0  0  0  0  0  0  0  0  0  0  0
   -5.2500    1.5560   -0.0000 C   0  0  0  0  0  0  0  0  0  0  0  0
   -3.9434    3.8128   -0.0000 C   0  0  0  0  0  0  0  0  0  0  0  0
    3.8247    3.7890   -0.0000 C   0  0  0  0  0  0  0  0  0  0  0  0
   -6.5566    2.3162   -0.0000 C   0  0  0  0  0  0  0  0  0  0  0  0
   -5.2500    4.5730   -0.0000 C   0  0  0  0  0  0  0  0  0  0  0  0
    5.1075    4.5492   -0.0000 C   0  0  0  0  0  0  0  0  0  0  0  0
   -6.5684    3.8247   -0.0000 C   0  0  0  0  0  0  0  0  0  0  0  0
    6.3903    3.8128   -0.0000 N   0  0  0  0  0  0  0  0  0  0  0  0
    7.6731    4.5730   -0.0000 C   0  0  0  0  0  0  0  0  0  0  0  0
    8.9559    3.8365   -0.0000 C   0  0  0  0  0  0  0  0  0  0  0  0
    7.6612    6.0815   -0.0000 C   0  0  0  0  0  0  0  0  0  0  0  0
   10.2387    4.5967   -0.0000 C   0  0  0  0  0  0  0  0  0  0  0  0
    8.9440    6.8416   -0.0000 C   0  0  0  0  0  0  0  0  0  0  0  0
   10.2268    6.1052   -0.0000 N   0  0  0  0  0  0  0  0  0  0  0  0
  1  2  2  0
  2  3  1  0
  2  4  1  0
  3  5  1  0
  4  6  1  0
  4  7  1  0
  5  8  1  0
  6  9  1  0
  7 10  1  0
  8 11  2  0
  8 12  1  0
  9 13  1  0
 11 14  1  0
 12 15  2  0
 13 16  1  0
 14 17  2  0
 16 18  1  0
 18 19  1  0
 19 20  2  0
 19 21  1  0
 20 22  1  0
 21 23  2  0
 22 24  2  0
 10 13  1  0
 15 17  1  0
 23 24  1  0
M  END
>  <MolRegNo>  (1) 
367432

>  <m>  (1) 
=

>  <Value>  (1) 
15000

>  <Unit>  (1) 
nM

>  <Type>  (1) 
IC50

>  <pValue>  (1) 
4.82

>  <Ligand Efficiency>  (1) 
0

>  <Binding Efficiency>  (1) 
0

>  <Surface Efficiency>  (1) 
0

>  <Assay Index>  (1) 
274142

>  <Assay Category>  (1) 


>  <Assay Organism>  (1) 
Homo sapiens

>  <Target ID>  (1) 
11365

>  <Target Name>  (1) 
Cytochrome P450 2D6

>  <Target Organism>  (1) 
Homo sapiens

>  <Target Description>  (1) 
Target is a single protein chain

>  <Sequence Accession>  (1) 
P10635

>  <Reference>  (1) 
J Med Chem 50 (4), 807-819 (2007)

>  <Pubmed ID>  (1) 
17249648

>  <DOI>  (1) 
10.1021/jm060983w

$$$$
