4wnv_ligand_579
     RDKit          2D

 27 28  0  0  0  0  0  0  0  0999 V2000
    0.0000   -0.0000   -0.0000 O   0  0  0  0  0  0  0  0  0  0  0  0
   -1.0994   -0.6176   -0.0000 C   0  0  0  0  0  0  0  0  0  0  0  0
   -1.1117   -2.1741   -0.0000 C   0  0  0  0  0  0  0  0  0  0  0  0
   -2.4705    0.1729   -0.0000 C   0  0  0  0  0  0  0  0  0  0  0  0
    0.2347   -2.9399   -0.0000 C   0  0  0  0  0  0  0  0  0  0  0  0
   -2.4829    1.7541   -0.0000 C   0  0  0  0  0  0  0  0  0  0  0  0
    1.3094   -2.2976   -0.0000 O   0  0  0  0  0  0  0  0  0  0  0  0
    0.2223   -4.4963   -0.0000 C   0  0  0  0  0  0  0  0  0  0  0  0
   -3.8540    2.5446   -0.0000 C   0  0  0  0  0  0  0  0  0  0  0  0
    1.5688   -5.2622   -0.0000 C   0  0  0  0  0  0  0  0  0  0  0  0
   -5.2251    1.7664   -0.0000 C   0  0  0  0  0  0  0  0  0  0  0  0
   -3.8664    4.1258   -0.0000 C   0  0  0  0  0  0  0  0  0  0  0  0
    1.5564   -6.8186   -0.0000 C   0  0  0  0  0  0  0  0  0  0  0  0
   -6.5963    2.5570   -0.0000 C   0  0  0  0  0  0  0  0  0  0  0  0
   -5.2375    4.9163   -0.0000 C   0  0  0  0  0  0  0  0  0  0  0  0
    2.9029   -7.5845   -0.0000 C   0  0  0  0  0  0  0  0  0  0  0  0
    0.1853   -7.5845   -0.0000 C   0  0  0  0  0  0  0  0  0  0  0  0
   -7.9674    1.7788   -0.0000 O   0  0  0  0  0  0  0  0  0  0  0  0
   -6.6086    4.1381   -0.0000 C   0  0  0  0  0  0  0  0  0  0  0  0
    2.8905   -9.1409   -0.0000 C   0  0  0  0  0  0  0  0  0  0  0  0
    0.1729   -9.1409   -0.0000 C   0  0  0  0  0  0  0  0  0  0  0  0
   -7.9798    0.5312   -0.0000 C   0  0  0  0  0  0  0  0  0  0  0  0
   -7.7080    4.7681   -0.0000 O   0  0  0  0  0  0  0  0  0  0  0  0
    4.2369   -9.9068   -0.0000 O   0  0  0  0  0  0  0  0  0  0  0  0
    1.5194   -9.9068   -0.0000 C   0  0  0  0  0  0  0  0  0  0  0  0
    5.3116   -9.2644   -0.0000 C   0  0  0  0  0  0  0  0  0  0  0  0
    1.5070  -11.1544   -0.0000 O   0  0  0  0  0  0  0  0  0  0  0  0
  1  2  2  0
  2  3  1  0
  2  4  1  0
  3  5  2  0
  4  6  2  0
  5  7  1  0
  5  8  1  0
  6  9  1  0
  8 10  2  0
  9 11  2  0
  9 12  1  0
 10 13  1  0
 11 14  1  0
 12 15  2  0
 13 16  2  0
 13 17  1  0
 14 18  1  0
 14 19  2  0
 16 20  1  0
 17 21  2  0
 18 22  1  0
 19 23  1  0
 20 24  1  0
 20 25  2  0
 24 26  1  0
 25 27  1  0
 15 19  1  0
 21 25  1  0
M  END
>  <MolRegNo>  (1) 
190171

>  <m>  (1) 
=

>  <Value>  (1) 
50300

>  <Unit>  (1) 
nM

>  <Type>  (1) 
IC50

>  <pValue>  (1) 
4.3

>  <Ligand Efficiency>  (1) 
0

>  <Binding Efficiency>  (1) 
0

>  <Surface Efficiency>  (1) 
0

>  <Assay Index>  (1) 
346197

>  <Assay Category>  (1) 


>  <Assay Organism>  (1) 
Homo sapiens

>  <Target ID>  (1) 
11365

>  <Target Name>  (1) 
Cytochrome P450 2D6

>  <Target Organism>  (1) 
Homo sapiens

>  <Target Description>  (1) 
Target is a single protein chain

>  <Sequence Accession>  (1) 
P10635

>  <Reference>  (1) 
Eur J Med Chem 43 (8), 1621-1631 (2008)

>  <Pubmed ID>  (1) 
18249473

>  <DOI>  (1) 
10.1016/j.ejmech.2007.10.034

$$$$
