4wnv_ligand_389
     RDKit          2D

 24 27  0  0  0  0  0  0  0  0999 V2000
    0.0000   -0.0000   -0.0000 Cl  0  0  0  0  0  0  0  0  0  0  0  0
   -1.3759    0.6115   -0.0000 C   0  0  0  0  0  0  0  0  0  0  0  0
   -2.6694   -0.1294   -0.0000 N   0  0  0  0  0  0  0  0  0  0  0  0
   -1.7051    2.0814   -0.0000 C   0  0  0  0  0  0  0  0  0  0  0  0
   -3.7983    0.8702   -0.0000 C   0  0  0  0  0  0  0  0  0  0  0  0
   -0.7291    3.2104   -0.0000 S   0  0  0  0  0  0  0  0  0  0  0  0
   -3.2104    2.2461   -0.0000 N   0  0  0  0  0  0  0  0  0  0  0  0
   -5.3036    1.0231   -0.0000 S   0  0  0  0  0  0  0  0  0  0  0  0
    0.3057    4.2805   -0.0000 O   0  0  0  0  0  0  0  0  0  0  0  0
   -0.0118    1.9403   -0.0000 O   0  0  0  0  0  0  0  0  0  0  0  0
   -1.2112    4.6333   -0.0000 N   0  0  0  0  0  0  0  0  0  0  0  0
   -4.3510    3.2456   -0.0000 C   0  0  0  0  0  0  0  0  0  0  0  0
   -5.6446    2.4930   -0.0000 C   0  0  0  0  0  0  0  0  0  0  0  0
   -2.6459    5.0919   -0.0000 C   0  0  0  0  0  0  0  0  0  0  0  0
   -0.3528    5.8563   -0.0000 C   0  0  0  0  0  0  0  0  0  0  0  0
   -2.6694    6.5971   -0.0000 C   0  0  0  0  0  0  0  0  0  0  0  0
   -3.9512    4.3510   -0.0000 C   0  0  0  0  0  0  0  0  0  0  0  0
   -1.2465    7.0675   -0.0000 C   0  0  0  0  0  0  0  0  0  0  0  0
   -3.9747    7.3497   -0.0000 C   0  0  0  0  0  0  0  0  0  0  0  0
   -5.2565    5.1037   -0.0000 C   0  0  0  0  0  0  0  0  0  0  0  0
   -0.8114    8.5022   -0.0000 C   0  0  0  0  0  0  0  0  0  0  0  0
   -5.2683    6.6089   -0.0000 C   0  0  0  0  0  0  0  0  0  0  0  0
    0.6350    8.8314   -0.0000 C   0  0  0  0  0  0  0  0  0  0  0  0
    1.0701   10.2661   -0.0000 N   0  0  0  0  0  0  0  0  0  0  0  0
  1  2  1  0
  2  3  1  0
  2  4  2  0
  3  5  2  0
  4  6  1  0
  4  7  1  0
  5  8  1  0
  6  9  2  0
  6 10  2  0
  6 11  1  0
  7 12  1  0
  8 13  1  0
 11 14  1  0
 11 15  1  0
 14 16  2  0
 14 17  1  0
 15 18  2  0
 16 19  1  0
 17 20  2  0
 18 21  1  0
 19 22  2  0
 21 23  1  0
 23 24  1  0
  5  7  1  0
 12 13  2  0
 16 18  1  0
 20 22  1  0
M  END
>  <MolRegNo>  (1) 
402468

>  <m>  (1) 
=

>  <Value>  (1) 
196000

>  <Unit>  (1) 
nM

>  <Type>  (1) 
IC50

>  <pValue>  (1) 
0

>  <Ligand Efficiency>  (1) 
0

>  <Binding Efficiency>  (1) 
0

>  <Surface Efficiency>  (1) 
0

>  <Assay Index>  (1) 
299990

>  <Assay Category>  (1) 


>  <Assay Organism>  (1) 
Homo sapiens

>  <Target ID>  (1) 
11365

>  <Target Name>  (1) 
Cytochrome P450 2D6

>  <Target Organism>  (1) 
Homo sapiens

>  <Target Description>  (1) 
Target is a single protein chain

>  <Sequence Accession>  (1) 
P10635

>  <Reference>  (1) 
J Med Chem 50 (23), 5535-5538 (2007)

>  <Pubmed ID>  (1) 
17948978

>  <DOI>  (1) 
10.1021/jm070521y

$$$$
