4wnv_ligand_541
     RDKit          2D

 34 38  0  0  0  0  0  0  0  0999 V2000
    0.0000   -0.0000   -0.0000 O   0  0  0  0  0  0  0  0  0  0  0  0
   -1.2810   -0.7947   -0.0000 C   0  0  0  0  0  0  0  0  0  0  0  0
   -2.6214   -0.0830   -0.0000 N   0  0  0  0  0  0  0  0  0  0  0  0
   -1.2336   -2.2893   -0.0000 C   0  0  0  0  0  0  0  0  0  0  0  0
   -3.8906   -0.8777   -0.0000 C   0  0  0  0  0  0  0  0  0  0  0  0
   -2.6925    1.4234   -0.0000 C   0  0  0  0  0  0  0  0  0  0  0  0
   -2.5146   -3.0721   -0.0000 N   0  0  0  0  0  0  0  0  0  0  0  0
   -3.8550   -2.3604   -0.0000 C   0  0  0  0  0  0  0  0  0  0  0  0
   -5.2190   -0.1661   -0.0000 C   0  0  0  0  0  0  0  0  0  0  0  0
   -1.3996    2.1825   -0.0000 C   0  0  0  0  0  0  0  0  0  0  0  0
   -5.1241   -3.1314   -0.0000 C   0  0  0  0  0  0  0  0  0  0  0  0
   -6.5001   -0.9489   -0.0000 C   0  0  0  0  0  0  0  0  0  0  0  0
   -0.1068    1.4471   -0.0000 O   0  0  0  0  0  0  0  0  0  0  0  0
   -1.4234    3.7008   -0.0000 N   0  0  0  0  0  0  0  0  0  0  0  0
   -6.4526   -2.4316   -0.0000 C   0  0  0  0  0  0  0  0  0  0  0  0
   -7.8404   -0.2372   -0.0000 C   0  0  0  0  0  0  0  0  0  0  0  0
   -0.1305    4.4599   -0.0000 C   0  0  0  0  0  0  0  0  0  0  0  0
   -2.7400    4.4480   -0.0000 C   0  0  0  0  0  0  0  0  0  0  0  0
   -7.7337   -3.2144   -0.0000 C   0  0  0  0  0  0  0  0  0  0  0  0
   -0.1423    5.9663   -0.0000 C   0  0  0  0  0  0  0  0  0  0  0  0
    0.7710    3.2856   -0.0000 C   0  0  0  0  0  0  0  0  0  0  0  0
   -2.7519    5.9663   -0.0000 C   0  0  0  0  0  0  0  0  0  0  0  0
    1.1506    6.7254   -0.0000 C   0  0  0  0  0  0  0  0  0  0  0  0
   -1.4590    6.7254   -0.0000 C   0  0  0  0  0  0  0  0  0  0  0  0
    2.2418    3.4991   -0.0000 N   0  0  0  0  0  0  0  0  0  0  0  0
    2.4435    5.9900   -0.0000 C   0  0  0  0  0  0  0  0  0  0  0  0
    1.1387    8.2318   -0.0000 C   0  0  0  0  0  0  0  0  0  0  0  0
    3.2619    2.4316   -0.0000 C   0  0  0  0  0  0  0  0  0  0  0  0
    2.9416    4.8395   -0.0000 C   0  0  0  0  0  0  0  0  0  0  0  0
    3.7245    6.7492   -0.0000 C   0  0  0  0  0  0  0  0  0  0  0  0
    2.4197    9.0028   -0.0000 C   0  0  0  0  0  0  0  0  0  0  0  0
    4.6022    3.0958   -0.0000 C   0  0  0  0  0  0  0  0  0  0  0  0
    4.4006    4.5785   -0.0000 C   0  0  0  0  0  0  0  0  0  0  0  0
    3.7126    8.2674   -0.0000 C   0  0  0  0  0  0  0  0  0  0  0  0
  1  2  2  0
  2  3  1  0
  2  4  1  0
  3  5  1  0
  3  6  1  0
  4  7  2  0
  5  8  2  0
  5  9  1  0
  6 10  1  0
  8 11  1  0
  9 12  2  0
 10 13  2  0
 10 14  1  0
 11 15  2  0
 12 16  1  0
 14 17  1  0
 14 18  1  0
 15 19  1  0
 17 20  1  0
 17 21  1  0
 18 22  1  0
 20 23  1  0
 20 24  1  0
 21 25  1  0
 23 26  2  0
 23 27  1  0
 25 28  1  0
 25 29  1  0
 26 30  1  0
 27 31  2  0
 28 32  1  0
 29 33  1  0
 30 34  2  0
  7  8  1  0
 12 15  1  0
 22 24  1  0
 31 34  1  0
 32 33  1  0
M  END
>  <MolRegNo>  (1) 
426638

>  <m>  (1) 
=

>  <Value>  (1) 
8400

>  <Unit>  (1) 
nM

>  <Type>  (1) 
IC50

>  <pValue>  (1) 
5.08

>  <Ligand Efficiency>  (1) 
0

>  <Binding Efficiency>  (1) 
0

>  <Surface Efficiency>  (1) 
0

>  <Assay Index>  (1) 
328211

>  <Assay Category>  (1) 


>  <Assay Organism>  (1) 


>  <Target ID>  (1) 
11365

>  <Target Name>  (1) 
Cytochrome P450 2D6

>  <Target Organism>  (1) 
Homo sapiens

>  <Target Description>  (1) 
Target is a single protein chain

>  <Sequence Accession>  (1) 
P10635

>  <Reference>  (1) 
Bioorg Med Chem Lett 18 (12), 3500-3503 (2008)

>  <Pubmed ID>  (1) 
18502123

>  <DOI>  (1) 
10.1016/j.bmcl.2008.05.027

$$$$
