4wnv_ligand_555
     RDKit          2D

 36 40  0  0  0  0  0  0  0  0999 V2000
    0.0000   -0.0000   -0.0000 F   0  0  0  0  0  0  0  0  0  0  0  0
   -1.3033    0.7583   -0.0000 C   0  0  0  0  0  0  0  0  0  0  0  0
   -2.0734   -0.5213   -0.0000 F   0  0  0  0  0  0  0  0  0  0  0  0
   -0.5450    2.0615   -0.0000 F   0  0  0  0  0  0  0  0  0  0  0  0
   -2.6065    1.5402   -0.0000 C   0  0  0  0  0  0  0  0  0  0  0  0
   -3.9335    0.8175   -0.0000 C   0  0  0  0  0  0  0  0  0  0  0  0
   -2.5947    3.0567   -0.0000 C   0  0  0  0  0  0  0  0  0  0  0  0
   -5.2249    1.5994   -0.0000 C   0  0  0  0  0  0  0  0  0  0  0  0
   -3.8861    3.8268   -0.0000 C   0  0  0  0  0  0  0  0  0  0  0  0
   -5.2012    3.1041   -0.0000 C   0  0  0  0  0  0  0  0  0  0  0  0
   -6.4926    3.8861   -0.0000 N   0  0  0  0  0  0  0  0  0  0  0  0
   -7.8077    3.1634   -0.0000 C   0  0  0  0  0  0  0  0  0  0  0  0
   -9.0991    3.9453   -0.0000 O   0  0  0  0  0  0  0  0  0  0  0  0
   -7.8432    1.6824   -0.0000 N   0  0  0  0  0  0  0  0  0  0  0  0
   -9.1583    0.9597   -0.0000 C   0  0  0  0  0  0  0  0  0  0  0  0
   -9.1939   -0.5213   -0.0000 C   0  0  0  0  0  0  0  0  0  0  0  0
  -10.4616    1.7416   -0.0000 C   0  0  0  0  0  0  0  0  0  0  0  0
  -10.5208   -1.2322   -0.0000 C   0  0  0  0  0  0  0  0  0  0  0  0
  -11.7885    1.0189   -0.0000 C   0  0  0  0  0  0  0  0  0  0  0  0
  -10.5564   -2.7131   -0.0000 C   0  0  0  0  0  0  0  0  0  0  0  0
  -11.8122   -0.4621   -0.0000 C   0  0  0  0  0  0  0  0  0  0  0  0
   -9.3716   -3.6017   -0.0000 N   0  0  0  0  0  0  0  0  0  0  0  0
  -11.7885   -3.5662   -0.0000 C   0  0  0  0  0  0  0  0  0  0  0  0
   -9.8692   -5.0116   -0.0000 N   0  0  0  0  0  0  0  0  0  0  0  0
  -13.2221   -3.0686   -0.0000 C   0  0  0  0  0  0  0  0  0  0  0  0
  -11.3620   -4.9879   -0.0000 C   0  0  0  0  0  0  0  0  0  0  0  0
   -9.0161   -6.2201   -0.0000 C   0  0  0  0  0  0  0  0  0  0  0  0
  -14.3595   -4.0401   -0.0000 C   0  0  0  0  0  0  0  0  0  0  0  0
  -13.5183   -1.5876   -0.0000 C   0  0  0  0  0  0  0  0  0  0  0  0
   -9.6559   -7.5707   -0.0000 C   0  0  0  0  0  0  0  0  0  0  0  0
  -15.7812   -3.5425   -0.0000 C   0  0  0  0  0  0  0  0  0  0  0  0
  -14.3950   -5.5211   -0.0000 C   0  0  0  0  0  0  0  0  0  0  0  0
  -14.9519   -1.0900   -0.0000 C   0  0  0  0  0  0  0  0  0  0  0  0
  -16.0774   -2.0734   -0.0000 N   0  0  0  0  0  0  0  0  0  0  0  0
  -16.6935   -4.7273   -0.0000 N   0  0  0  0  0  0  0  0  0  0  0  0
  -15.8405   -5.9476   -0.0000 C   0  0  0  0  0  0  0  0  0  0  0  0
  1  2  1  0
  2  3  1  0
  2  4  1  0
  2  5  1  0
  5  6  2  0
  5  7  1  0
  6  8  1  0
  7  9  2  0
  8 10  2  0
 10 11  1  0
 11 12  1  0
 12 13  2  0
 12 14  1  0
 14 15  1  0
 15 16  2  0
 15 17  1  0
 16 18  1  0
 17 19  2  0
 18 20  1  0
 18 21  2  0
 20 22  2  0
 20 23  1  0
 22 24  1  0
 23 25  1  0
 23 26  2  0
 24 27  1  0
 25 28  1  0
 25 29  2  0
 27 30  1  0
 28 31  2  0
 28 32  1  0
 29 33  1  0
 31 34  1  0
 31 35  1  0
 32 36  2  0
  9 10  1  0
 19 21  1  0
 24 26  1  0
 33 34  2  0
 35 36  1  0
M  END
>  <MolRegNo>  (1) 
511615

>  <m>  (1) 
=

>  <Value>  (1) 
5011.9

>  <Unit>  (1) 
nM

>  <Type>  (1) 
IC50

>  <pValue>  (1) 
5.3

>  <Ligand Efficiency>  (1) 
0

>  <Binding Efficiency>  (1) 
0

>  <Surface Efficiency>  (1) 
0

>  <Assay Index>  (1) 
363725

>  <Assay Category>  (1) 


>  <Assay Organism>  (1) 


>  <Target ID>  (1) 
11365

>  <Target Name>  (1) 
Cytochrome P450 2D6

>  <Target Organism>  (1) 
Homo sapiens

>  <Target Description>  (1) 
Target is a single protein chain

>  <Sequence Accession>  (1) 
P10635

>  <Reference>  (1) 
Bioorg Med Chem Lett 18 (16), 4610-4614 (2008)

>  <Pubmed ID>  (1) 
18662874

>  <DOI>  (1) 
10.1016/j.bmcl.2008.07.019

$$$$
