4wnv_ligand_979
     RDKit          2D

 28 31  0  0  0  0  0  0  0  0999 V2000
    0.0000   -0.0000   -0.0000 O   0  0  0  0  0  0  0  0  0  0  0  0
   -0.0118    1.5142   -0.0000 C   0  0  0  0  0  0  0  0  0  0  0  0
    1.2776    2.2831   -0.0000 N   0  0  0  0  0  0  0  0  0  0  0  0
   -1.3249    2.2831   -0.0000 N   0  0  0  0  0  0  0  0  0  0  0  0
    2.5670    1.5497   -0.0000 C   0  0  0  0  0  0  0  0  0  0  0  0
    1.2657    3.7972   -0.0000 C   0  0  0  0  0  0  0  0  0  0  0  0
   -2.6498    1.5851   -0.0000 C   0  0  0  0  0  0  0  0  0  0  0  0
    3.8564    2.3067   -0.0000 C   0  0  0  0  0  0  0  0  0  0  0  0
    2.5552    4.5662   -0.0000 C   0  0  0  0  0  0  0  0  0  0  0  0
   -2.6971    0.0946   -0.0000 C   0  0  0  0  0  0  0  0  0  0  0  0
    5.1458    1.5615   -0.0000 C   0  0  0  0  0  0  0  0  0  0  0  0
    3.8446    3.8209   -0.0000 C   0  0  0  0  0  0  0  0  0  0  0  0
    3.8327    0.8162   -0.0000 C   0  0  0  0  0  0  0  0  0  0  0  0
   -4.0220   -0.6151   -0.0000 C   0  0  0  0  0  0  0  0  0  0  0  0
    5.1221    0.0710   -0.0000 C   0  0  0  0  0  0  0  0  0  0  0  0
    6.4234    2.3186   -0.0000 C   0  0  0  0  0  0  0  0  0  0  0  0
   -4.0575   -2.0938   -0.0000 C   0  0  0  0  0  0  0  0  0  0  0  0
   -5.3114    0.1774   -0.0000 C   0  0  0  0  0  0  0  0  0  0  0  0
    6.4115   -0.6743   -0.0000 C   0  0  0  0  0  0  0  0  0  0  0  0
    7.7128    1.5851   -0.0000 C   0  0  0  0  0  0  0  0  0  0  0  0
   -5.3706   -2.8154   -0.0000 C   0  0  0  0  0  0  0  0  0  0  0  0
   -6.6363   -0.5323   -0.0000 C   0  0  0  0  0  0  0  0  0  0  0  0
    7.7010    0.0828   -0.0000 C   0  0  0  0  0  0  0  0  0  0  0  0
   -5.4060   -4.3059   -0.0000 N   0  0  0  0  0  0  0  0  0  0  0  0
   -6.6718   -2.0228   -0.0000 C   0  0  0  0  0  0  0  0  0  0  0  0
   -6.7309   -5.0275   -0.0000 C   0  0  0  0  0  0  0  0  0  0  0  0
   -7.9967   -2.7444   -0.0000 N   0  0  0  0  0  0  0  0  0  0  0  0
   -8.0440   -4.2468   -0.0000 C   0  0  0  0  0  0  0  0  0  0  0  0
  1  2  2  0
  2  3  1  0
  2  4  1  0
  3  5  1  0
  3  6  1  0
  4  7  1  0
  5  8  1  0
  6  9  1  0
  7 10  1  0
  8 11  1  0
  8 12  1  0
  8 13  1  0
 10 14  1  0
 11 15  2  0
 11 16  1  0
 14 17  2  0
 14 18  1  0
 15 19  1  0
 16 20  2  0
 17 21  1  0
 18 22  2  0
 19 23  2  0
 21 24  2  0
 21 25  1  0
 24 26  1  0
 25 27  2  0
 26 28  2  0
  9 12  1  0
 20 23  1  0
 22 25  1  0
 27 28  1  0
M  END
>  <MolRegNo>  (1) 
617882

>  <m>  (1) 
=

>  <Value>  (1) 
10000

>  <Unit>  (1) 
nM

>  <Type>  (1) 
IC50

>  <pValue>  (1) 
5

>  <Ligand Efficiency>  (1) 
0

>  <Binding Efficiency>  (1) 
0

>  <Surface Efficiency>  (1) 
0

>  <Assay Index>  (1) 
466911

>  <Assay Category>  (1) 


>  <Assay Organism>  (1) 


>  <Target ID>  (1) 
11365

>  <Target Name>  (1) 
Cytochrome P450 2D6

>  <Target Organism>  (1) 
Homo sapiens

>  <Target Description>  (1) 
Target is a single protein chain

>  <Sequence Accession>  (1) 
P10635

>  <Reference>  (1) 
Bioorg Med Chem Lett 19 (18), 5314-5320 (2009)

>  <Pubmed ID>  (1) 
19682899

>  <DOI>  (1) 
10.1016/j.bmcl.2009.07.138

$$$$
