4wnv_ligand_827
     RDKit          2D

 41 42  0  0  0  0  0  0  0  0999 V2000
    0.0000   -0.0000   -0.0000 F   0  0  0  0  0  0  0  0  0  0  0  0
    1.2920   -0.7417   -0.0000 C   0  0  0  0  0  0  0  0  0  0  0  0
    2.5840    0.0239   -0.0000 C   0  0  0  0  0  0  0  0  0  0  0  0
    1.2800   -2.2490   -0.0000 C   0  0  0  0  0  0  0  0  0  0  0  0
    2.5720    1.5432   -0.0000 F   0  0  0  0  0  0  0  0  0  0  0  0
    3.8760   -0.7178   -0.0000 C   0  0  0  0  0  0  0  0  0  0  0  0
    2.5720   -2.9908   -0.0000 C   0  0  0  0  0  0  0  0  0  0  0  0
    3.8641   -2.2251   -0.0000 C   0  0  0  0  0  0  0  0  0  0  0  0
    2.5601   -4.4861   -0.0000 F   0  0  0  0  0  0  0  0  0  0  0  0
    5.1680   -2.9668   -0.0000 C   0  0  0  0  0  0  0  0  0  0  0  0
    6.4600   -2.2012   -0.0000 C   0  0  0  0  0  0  0  0  0  0  0  0
    5.1561   -4.4622   -0.0000 C   0  0  0  0  0  0  0  0  0  0  0  0
    6.4481   -0.6819   -0.0000 N   0  0  0  0  0  0  0  0  0  0  0  0
    7.7520   -2.9549   -0.0000 C   0  0  0  0  0  0  0  0  0  0  0  0
    6.4361   -5.1919   -0.0000 C   0  0  0  0  0  0  0  0  0  0  0  0
    7.7401   -4.4502   -0.0000 N   0  0  0  0  0  0  0  0  0  0  0  0
    6.7232   -6.6634   -0.0000 N   0  0  0  0  0  0  0  0  0  0  0  0
    8.8407   -5.4671   -0.0000 C   0  0  0  0  0  0  0  0  0  0  0  0
    8.2186   -6.8189   -0.0000 C   0  0  0  0  0  0  0  0  0  0  0  0
   10.3241   -5.3116   -0.0000 C   0  0  0  0  0  0  0  0  0  0  0  0
    9.0799   -8.0272   -0.0000 C   0  0  0  0  0  0  0  0  0  0  0  0
   11.1854   -6.5198   -0.0000 C   0  0  0  0  0  0  0  0  0  0  0  0
   10.5633   -7.8717   -0.0000 N   0  0  0  0  0  0  0  0  0  0  0  0
   12.6808   -6.3524   -0.0000 C   0  0  0  0  0  0  0  0  0  0  0  0
   13.5541   -7.5606   -0.0000 F   0  0  0  0  0  0  0  0  0  0  0  0
   13.2909   -4.9646   -0.0000 F   0  0  0  0  0  0  0  0  0  0  0  0
   12.4296   -7.8358   -0.0000 F   0  0  0  0  0  0  0  0  0  0  0  0
    9.1876  -10.3360   -0.0000 F   0  0  0  0  0  0  0  0  0  0  0  0
   10.4796  -11.0897   -0.0000 C   0  0  0  0  0  0  0  0  0  0  0  0
   10.4557  -12.5851   -0.0000 F   0  0  0  0  0  0  0  0  0  0  0  0
   10.0848   -9.6183   -0.0000 F   0  0  0  0  0  0  0  0  0  0  0  0
   11.7836  -10.3360   -0.0000 C   0  0  0  0  0  0  0  0  0  0  0  0
   11.7836   -8.8167   -0.0000 O   0  0  0  0  0  0  0  0  0  0  0  0
   13.0756  -11.0897   -0.0000 O   0  0  0  0  0  0  0  0  0  0  0  0
    8.3263   -1.0527   -0.0000 F   0  0  0  0  0  0  0  0  0  0  0  0
    9.6183   -1.8064   -0.0000 C   0  0  0  0  0  0  0  0  0  0  0  0
    9.5943   -3.3018   -0.0000 F   0  0  0  0  0  0  0  0  0  0  0  0
    9.2235   -0.3350   -0.0000 F   0  0  0  0  0  0  0  0  0  0  0  0
   10.9222   -1.0527   -0.0000 C   0  0  0  0  0  0  0  0  0  0  0  0
   10.9222    0.4666   -0.0000 O   0  0  0  0  0  0  0  0  0  0  0  0
   12.2142   -1.8064   -0.0000 O   0  0  0  0  0  0  0  0  0  0  0  0
  1  2  1  0
  2  3  2  0
  2  4  1  0
  3  5  1  0
  3  6  1  0
  4  7  2  0
  6  8  2  0
  7  9  1  0
 10  8  1  6
 10 11  1  0
 10 12  1  0
 11 13  1  1
 11 14  1  0
 12 15  1  0
 14 16  1  0
 15 17  2  0
 16 18  1  0
 17 19  1  0
 18 20  2  0
 19 21  2  0
 20 22  1  0
 21 23  1  0
 22 24  1  0
 24 25  1  0
 24 26  1  0
 24 27  1  0
 28 29  1  0
 29 30  1  0
 29 31  1  0
 29 32  1  0
 32 33  2  0
 32 34  1  0
 35 36  1  0
 36 37  1  0
 36 38  1  0
 36 39  1  0
 39 40  2  0
 39 41  1  0
  7  8  1  0
 15 16  1  0
 18 19  1  0
 22 23  2  0
M  END
>  <MolRegNo>  (1) 
557082

>  <m>  (1) 
=

>  <Value>  (1) 
11000

>  <Unit>  (1) 
nM

>  <Type>  (1) 
IC50

>  <pValue>  (1) 
4.96

>  <Ligand Efficiency>  (1) 
0

>  <Binding Efficiency>  (1) 
0

>  <Surface Efficiency>  (1) 
0

>  <Assay Index>  (1) 
427460

>  <Assay Category>  (1) 


>  <Assay Organism>  (1) 


>  <Target ID>  (1) 
11365

>  <Target Name>  (1) 
Cytochrome P450 2D6

>  <Target Organism>  (1) 
Homo sapiens

>  <Target Description>  (1) 
Target is a single protein chain

>  <Sequence Accession>  (1) 
P10635

>  <Reference>  (1) 
Bioorg Med Chem Lett 19 (15), 4097-4101 (2009)

>  <Pubmed ID>  (1) 
19539471

>  <DOI>  (1) 
10.1016/j.bmcl.2009.06.011

$$$$
