4wnv_ligand_954
     RDKit          2D

 30 33  0  0  0  0  0  0  0  0999 V2000
    0.0000   -0.0000   -0.0000 O   0  0  0  0  0  0  0  0  0  0  0  0
   -1.3118   -0.7394   -0.0000 C   0  0  0  0  0  0  0  0  0  0  0  0
   -1.3237   -2.2300   -0.0000 N   0  0  0  0  0  0  0  0  0  0  0  0
   -2.6235    0.0239   -0.0000 C   0  0  0  0  0  0  0  0  0  0  0  0
   -0.0358   -2.9694   -0.0000 C   0  0  0  0  0  0  0  0  0  0  0  0
   -2.6235   -2.9694   -0.0000 C   0  0  0  0  0  0  0  0  0  0  0  0
   -3.9353   -0.7155   -0.0000 C   0  0  0  0  0  0  0  0  0  0  0  0
   -0.0477   -4.4719   -0.0000 N   0  0  0  0  0  0  0  0  0  0  0  0
    1.2521   -2.2061   -0.0000 C   0  0  0  0  0  0  0  0  0  0  0  0
   -3.9353   -2.2181   -0.0000 C   0  0  0  0  0  0  0  0  0  0  0  0
    1.2402   -5.2113   -0.0000 C   0  0  0  0  0  0  0  0  0  0  0  0
    2.5400   -2.9455   -0.0000 C   0  0  0  0  0  0  0  0  0  0  0  0
    1.2283   -6.7019   -0.0000 N   0  0  0  0  0  0  0  0  0  0  0  0
    2.5281   -4.4481   -0.0000 C   0  0  0  0  0  0  0  0  0  0  0  0
    3.9711   -2.4566   -0.0000 C   0  0  0  0  0  0  0  0  0  0  0  0
   -0.0835   -7.4413   -0.0000 C   0  0  0  0  0  0  0  0  0  0  0  0
    3.9591   -4.9012   -0.0000 N   0  0  0  0  0  0  0  0  0  0  0  0
    4.8535   -3.6610   -0.0000 C   0  0  0  0  0  0  0  0  0  0  0  0
    4.4242   -1.0136   -0.0000 C   0  0  0  0  0  0  0  0  0  0  0  0
   -0.0954   -8.9319   -0.0000 C   0  0  0  0  0  0  0  0  0  0  0  0
    4.4242   -6.3203   -0.0000 C   0  0  0  0  0  0  0  0  0  0  0  0
    6.3442   -3.6372   -0.0000 C   0  0  0  0  0  0  0  0  0  0  0  0
    1.1925   -9.6593   -0.0000 C   0  0  0  0  0  0  0  0  0  0  0  0
   -1.4072   -9.6593   -0.0000 C   0  0  0  0  0  0  0  0  0  0  0  0
    3.4106   -7.4293   -0.0000 C   0  0  0  0  0  0  0  0  0  0  0  0
    1.1925  -11.1500   -0.0000 C   0  0  0  0  0  0  0  0  0  0  0  0
    2.4804   -8.8842   -0.0000 C   0  0  0  0  0  0  0  0  0  0  0  0
   -1.4191  -11.1500   -0.0000 C   0  0  0  0  0  0  0  0  0  0  0  0
   -2.7189   -8.8961   -0.0000 C   0  0  0  0  0  0  0  0  0  0  0  0
   -0.1312  -11.9013   -0.0000 C   0  0  0  0  0  0  0  0  0  0  0  0
  1  2  2  0
  2  3  1  0
  2  4  1  0
  3  5  1  0
  3  6  1  0
  4  7  2  0
  5  8  2  0
  5  9  1  0
  6 10  2  0
  8 11  1  0
  9 12  2  0
 11 13  1  0
 11 14  2  0
 12 15  1  0
 13 16  1  0
 14 17  1  0
 15 18  2  0
 15 19  1  0
 16 20  1  0
 17 21  1  0
 18 22  1  0
 20 23  2  0
 20 24  1  0
 21 25  1  0
 23 26  1  0
 23 27  1  0
 24 28  2  0
 24 29  1  0
 26 30  2  0
  7 10  1  0
 12 14  1  0
 17 18  1  0
 28 30  1  0
M  END
>  <MolRegNo>  (1) 
611747

>  <m>  (1) 
=

>  <Value>  (1) 
18000

>  <Unit>  (1) 
nM

>  <Type>  (1) 
IC50

>  <pValue>  (1) 
4.75

>  <Ligand Efficiency>  (1) 
0

>  <Binding Efficiency>  (1) 
0

>  <Surface Efficiency>  (1) 
0

>  <Assay Index>  (1) 
464697

>  <Assay Category>  (1) 


>  <Assay Organism>  (1) 


>  <Target ID>  (1) 
11365

>  <Target Name>  (1) 
Cytochrome P450 2D6

>  <Target Organism>  (1) 
Homo sapiens

>  <Target Description>  (1) 
Target is a single protein chain

>  <Sequence Accession>  (1) 
P10635

>  <Reference>  (1) 
Bioorg Med Chem Lett 19 (23), 6813-6817 (2009)

>  <Pubmed ID>  (1) 
19846298

>  <DOI>  (1) 
10.1016/j.bmcl.2009.07.002

$$$$
