4wnv_ligand_417
     RDKit          2D

 28 31  0  0  0  0  0  0  0  0999 V2000
    0.0000   -0.0000   -0.0000 F   0  0  0  0  0  0  0  0  0  0  0  0
   -1.2979    0.7620   -0.0000 C   0  0  0  0  0  0  0  0  0  0  0  0
   -2.5957    0.0357   -0.0000 C   0  0  0  0  0  0  0  0  0  0  0  0
   -1.3098    2.2623   -0.0000 C   0  0  0  0  0  0  0  0  0  0  0  0
   -3.8936    0.7978   -0.0000 C   0  0  0  0  0  0  0  0  0  0  0  0
   -2.6076    3.0125   -0.0000 C   0  0  0  0  0  0  0  0  0  0  0  0
   -3.8936    2.2981   -0.0000 C   0  0  0  0  0  0  0  0  0  0  0  0
   -5.1915    3.0601   -0.0000 C   0  0  0  0  0  0  0  0  0  0  0  0
   -5.2034    4.5485   -0.0000 O   0  0  0  0  0  0  0  0  0  0  0  0
   -5.2034    1.5717   -0.0000 C   0  0  0  0  0  0  0  0  0  0  0  0
   -6.4893    3.8102   -0.0000 C   0  0  0  0  0  0  0  0  0  0  0  0
   -6.5131    0.8335   -0.0000 C   0  0  0  0  0  0  0  0  0  0  0  0
   -7.7991    3.0720   -0.0000 C   0  0  0  0  0  0  0  0  0  0  0  0
   -7.8229    1.5955   -0.0000 N   0  0  0  0  0  0  0  0  0  0  0  0
   -9.1327    0.8573   -0.0000 C   0  0  0  0  0  0  0  0  0  0  0  0
  -10.4425    1.6194   -0.0000 C   0  0  0  0  0  0  0  0  0  0  0  0
   -9.1446   -0.6311   -0.0000 C   0  0  0  0  0  0  0  0  0  0  0  0
  -10.4782    3.1435   -0.0000 O   0  0  0  0  0  0  0  0  0  0  0  0
  -11.7522    0.8811   -0.0000 C   0  0  0  0  0  0  0  0  0  0  0  0
  -13.0620    1.6432   -0.0000 C   0  0  0  0  0  0  0  0  0  0  0  0
  -11.7641   -0.6073   -0.0000 C   0  0  0  0  0  0  0  0  0  0  0  0
  -14.3718    0.9049   -0.0000 C   0  0  0  0  0  0  0  0  0  0  0  0
  -13.0739   -1.3455   -0.0000 C   0  0  0  0  0  0  0  0  0  0  0  0
  -15.8006    1.3693   -0.0000 O   0  0  0  0  0  0  0  0  0  0  0  0
  -14.3837   -0.5834   -0.0000 C   0  0  0  0  0  0  0  0  0  0  0  0
  -16.6936    0.1667   -0.0000 C   0  0  0  0  0  0  0  0  0  0  0  0
  -15.8125   -1.0359   -0.0000 N   0  0  0  0  0  0  0  0  0  0  0  0
  -18.2058    0.1786   -0.0000 O   0  0  0  0  0  0  0  0  0  0  0  0
  1  2  1  0
  2  3  2  0
  2  4  1  0
  3  5  1  0
  4  6  2  0
  5  7  2  0
  7  8  1  0
  8  9  1  0
  8 10  1  0
  8 11  1  0
 10 12  1  0
 11 13  1  0
 12 14  1  0
 14 15  1  0
 15 16  1  0
 15 17  1  0
 16 18  1  0
 16 19  1  0
 19 20  2  0
 19 21  1  0
 20 22  1  0
 21 23  2  0
 22 24  1  0
 22 25  2  0
 24 26  1  0
 25 27  1  0
 26 28  2  0
  6  7  1  0
 13 14  1  0
 23 25  1  0
 26 27  1  0
M  END
>  <MolRegNo>  (1) 
414581

>  <m>  (1) 
=

>  <Value>  (1) 
11000

>  <Unit>  (1) 
nM

>  <Type>  (1) 
IC50

>  <pValue>  (1) 
4.96

>  <Ligand Efficiency>  (1) 
0

>  <Binding Efficiency>  (1) 
0

>  <Surface Efficiency>  (1) 
0

>  <Assay Index>  (1) 
306184

>  <Assay Category>  (1) 


>  <Assay Organism>  (1) 


>  <Target ID>  (1) 
11365

>  <Target Name>  (1) 
Cytochrome P450 2D6

>  <Target Organism>  (1) 
Homo sapiens

>  <Target Description>  (1) 
Target is a single protein chain

>  <Sequence Accession>  (1) 
P10635

>  <Reference>  (1) 
Bioorg Med Chem Lett 17 (20), 5558-5562 (2007)

>  <Pubmed ID>  (1) 
17766106

>  <DOI>  (1) 
10.1016/j.bmcl.2007.08.014

$$$$
