4wnv_ligand_19
     RDKit          2D

 46 49  0  0  0  0  0  0  0  0999 V2000
    0.0000   -0.0000   -0.0000 S   0  0  0  0  0  0  0  0  0  0  0  0
    1.2796    0.7678   -0.0000 C   0  0  0  0  0  0  0  0  0  0  0  0
   -1.3284    0.7556   -0.0000 C   0  0  0  0  0  0  0  0  0  0  0  0
    1.2553    2.2790   -0.0000 N   0  0  0  0  0  0  0  0  0  0  0  0
    2.5715    0.0244   -0.0000 N   0  0  0  0  0  0  0  0  0  0  0  0
   -2.6324    0.0122   -0.0000 C   0  0  0  0  0  0  0  0  0  0  0  0
    2.5593    3.0468   -0.0000 C   0  0  0  0  0  0  0  0  0  0  0  0
    3.8511    0.7922   -0.0000 C   0  0  0  0  0  0  0  0  0  0  0  0
    2.5593   -1.4624   -0.0000 C   0  0  0  0  0  0  0  0  0  0  0  0
   -3.9364    0.7800   -0.0000 C   0  0  0  0  0  0  0  0  0  0  0  0
   -2.6446   -1.4990   -0.0000 C   0  0  0  0  0  0  0  0  0  0  0  0
    2.5471    4.5823   -0.0000 O   0  0  0  0  0  0  0  0  0  0  0  0
    3.8511    2.3034   -0.0000 C   0  0  0  0  0  0  0  0  0  0  0  0
    3.8389   -2.2059   -0.0000 C   0  0  0  0  0  0  0  0  0  0  0  0
   -5.2404    0.0244   -0.0000 C   0  0  0  0  0  0  0  0  0  0  0  0
   -3.9486   -2.2424   -0.0000 C   0  0  0  0  0  0  0  0  0  0  0  0
    5.1308    3.0711   -0.0000 S   0  0  0  0  0  0  0  0  0  0  0  0
    5.1186   -1.4381   -0.0000 O   0  0  0  0  0  0  0  0  0  0  0  0
    3.8267   -3.6927   -0.0000 N   0  0  0  0  0  0  0  0  0  0  0  0
   -5.2526   -1.4624   -0.0000 C   0  0  0  0  0  0  0  0  0  0  0  0
    6.4104    2.3277   -0.0000 C   0  0  0  0  0  0  0  0  0  0  0  0
    5.1308   -4.4361   -0.0000 C   0  0  0  0  0  0  0  0  0  0  0  0
    2.5227   -4.4361   -0.0000 C   0  0  0  0  0  0  0  0  0  0  0  0
   -6.5688   -2.2059   -0.0000 F   0  0  0  0  0  0  0  0  0  0  0  0
    6.4104   -3.6683   -0.0000 C   0  0  0  0  0  0  0  0  0  0  0  0
    1.2187   -3.6683   -0.0000 C   0  0  0  0  0  0  0  0  0  0  0  0
    6.3860   -2.1571   -0.0000 C   0  0  0  0  0  0  0  0  0  0  0  0
    7.6900   -4.4117   -0.0000 C   0  0  0  0  0  0  0  0  0  0  0  0
   -0.0853   -4.4117   -0.0000 N   0  0  0  0  0  0  0  0  0  0  0  0
    7.6657   -1.3893   -0.0000 C   0  0  0  0  0  0  0  0  0  0  0  0
    8.9697   -3.6439   -0.0000 C   0  0  0  0  0  0  0  0  0  0  0  0
   -1.4015   -3.6561   -0.0000 C   0  0  0  0  0  0  0  0  0  0  0  0
   -0.0975   -5.8985   -0.0000 C   0  0  0  0  0  0  0  0  0  0  0  0
    8.9697   -2.1327   -0.0000 C   0  0  0  0  0  0  0  0  0  0  0  0
   -2.7055   -4.3995   -0.0000 C   0  0  0  0  0  0  0  0  0  0  0  0
   -1.4137   -6.6419   -0.0000 C   0  0  0  0  0  0  0  0  0  0  0  0
   10.2493   -1.3650   -0.0000 C   0  0  0  0  0  0  0  0  0  0  0  0
   11.5290   -2.1084   -0.0000 C   0  0  0  0  0  0  0  0  0  0  0  0
   10.2249    0.1462   -0.0000 C   0  0  0  0  0  0  0  0  0  0  0  0
   12.8208   -1.3406   -0.0000 C   0  0  0  0  0  0  0  0  0  0  0  0
   11.5046    0.9140   -0.0000 C   0  0  0  0  0  0  0  0  0  0  0  0
   12.7964    0.1706   -0.0000 C   0  0  0  0  0  0  0  0  0  0  0  0
   14.0761    0.9506   -0.0000 C   0  0  0  0  0  0  0  0  0  0  0  0
   15.2338    1.6453   -0.0000 F   0  0  0  0  0  0  0  0  0  0  0  0
   15.5263    0.4144   -0.0000 F   0  0  0  0  0  0  0  0  0  0  0  0
   14.2954    2.5105   -0.0000 F   0  0  0  0  0  0  0  0  0  0  0  0
  1  2  1  0
  1  3  1  0
  2  4  2  0
  2  5  1  0
  3  6  1  0
  4  7  1  0
  5  8  1  0
  5  9  1  0
  6 10  2  0
  6 11  1  0
  7 12  2  0
  7 13  1  0
  9 14  1  0
 10 15  1  0
 11 16  2  0
 13 17  1  0
 14 18  2  0
 14 19  1  0
 15 20  2  0
 17 21  1  0
 19 22  1  0
 19 23  1  0
 20 24  1  0
 22 25  1  0
 23 26  1  0
 25 27  2  0
 25 28  1  0
 26 29  1  0
 27 30  1  0
 28 31  2  0
 29 32  1  0
 29 33  1  0
 30 34  2  0
 32 35  1  0
 33 36  1  0
 34 37  1  0
 37 38  2  0
 37 39  1  0
 38 40  1  0
 39 41  2  0
 40 42  2  0
 42 43  1  0
 43 44  1  0
 43 45  1  0
 43 46  1  0
  8 13  2  0
 16 20  1  0
 31 34  1  0
 41 42  1  0
M  END
>  <MolRegNo>  (1) 
7576

>  <m>  (1) 
=

>  <Value>  (1) 
39000

>  <Unit>  (1) 
nM

>  <Type>  (1) 
IC50

>  <pValue>  (1) 
4.41

>  <Ligand Efficiency>  (1) 
0

>  <Binding Efficiency>  (1) 
0

>  <Surface Efficiency>  (1) 
0

>  <Assay Index>  (1) 
51652

>  <Assay Category>  (1) 


>  <Assay Organism>  (1) 


>  <Target ID>  (1) 
11365

>  <Target Name>  (1) 
Cytochrome P450 2D6

>  <Target Organism>  (1) 
Homo sapiens

>  <Target Description>  (1) 
Target is a single protein chain

>  <Sequence Accession>  (1) 
P10635

>  <Reference>  (1) 
Bioorg Med Chem Lett 13 (6), 1067-1070 (2003)

>  <Pubmed ID>  (1) 
12643913

>  <DOI>  (1) 
10.1016/s0960-894x(03)00058-1

$$$$
