4wnv_ligand_162
     RDKit          2D

 21 23  0  0  0  0  0  0  0  0999 V2000
    0.0000   -0.0000   -0.0000 Cl  0  0  0  0  0  0  0  0  0  0  0  0
   -1.5025    0.0117   -0.0000 C   0  0  0  0  0  0  0  0  0  0  0  0
   -2.2421   -1.2678   -0.0000 C   0  0  0  0  0  0  0  0  0  0  0  0
   -2.2655    1.3147   -0.0000 C   0  0  0  0  0  0  0  0  0  0  0  0
   -3.7446   -1.2795   -0.0000 C   0  0  0  0  0  0  0  0  0  0  0  0
   -3.7563    1.3147   -0.0000 C   0  0  0  0  0  0  0  0  0  0  0  0
   -4.4958    0.0235   -0.0000 C   0  0  0  0  0  0  0  0  0  0  0  0
   -5.9984    0.0352   -0.0000 C   0  0  0  0  0  0  0  0  0  0  0  0
   -6.0336   -1.4438   -0.0000 O   0  0  0  0  0  0  0  0  0  0  0  0
   -7.5009   -0.1056   -0.0000 N   0  0  0  0  0  0  0  0  0  0  0  0
   -5.7166    1.5143   -0.0000 C   0  0  0  0  0  0  0  0  0  0  0  0
   -8.1230    1.2795   -0.0000 C   0  0  0  0  0  0  0  0  0  0  0  0
   -8.2874   -1.3851   -0.0000 C   0  0  0  0  0  0  0  0  0  0  0  0
   -7.0196    2.2655   -0.0000 C   0  0  0  0  0  0  0  0  0  0  0  0
   -4.4137    2.2655   -0.0000 C   0  0  0  0  0  0  0  0  0  0  0  0
   -9.6021    1.6082   -0.0000 O   0  0  0  0  0  0  0  0  0  0  0  0
   -9.7782   -1.3617   -0.0000 C   0  0  0  0  0  0  0  0  0  0  0  0
   -7.0314    3.7681   -0.0000 C   0  0  0  0  0  0  0  0  0  0  0  0
   -4.4254    3.7681   -0.0000 C   0  0  0  0  0  0  0  0  0  0  0  0
  -10.5412   -2.6529   -0.0000 N   0  0  0  0  0  0  0  0  0  0  0  0
   -5.7519    4.5193   -0.0000 C   0  0  0  0  0  0  0  0  0  0  0  0
  1  2  1  0
  2  3  2  0
  2  4  1  0
  3  5  1  0
  4  6  2  0
  5  7  2  0
  7  8  1  0
  8  9  1  0
  8 10  1  0
  8 11  1  0
 10 12  1  0
 10 13  1  0
 11 14  2  0
 11 15  1  0
 12 16  2  0
 13 17  1  0
 14 18  1  0
 15 19  2  0
 17 20  1  0
 18 21  2  0
  6  7  1  0
 12 14  1  0
 19 21  1  0
M  END
>  <MolRegNo>  (1) 
313981

>  <m>  (1) 
=

>  <Value>  (1) 
8500

>  <Unit>  (1) 
nM

>  <Type>  (1) 
IC50

>  <pValue>  (1) 
5.07

>  <Ligand Efficiency>  (1) 
0

>  <Binding Efficiency>  (1) 
0

>  <Surface Efficiency>  (1) 
0

>  <Assay Index>  (1) 
237541

>  <Assay Category>  (1) 


>  <Assay Organism>  (1) 


>  <Target ID>  (1) 
11365

>  <Target Name>  (1) 
Cytochrome P450 2D6

>  <Target Organism>  (1) 
Homo sapiens

>  <Target Description>  (1) 
Target is a single protein chain

>  <Sequence Accession>  (1) 
P10635

>  <Reference>  (1) 
J Med Chem 47 (22), 5340-5346 (2004)

>  <Pubmed ID>  (1) 
15481972

>  <DOI>  (1) 
10.1021/jm049934e

$$$$
