4wnv_ligand_637
     RDKit          2D

 14 16  0  0  0  0  0  0  0  0999 V2000
    0.0000   -0.0000   -0.0000 Cl  0  0  0  0  0  0  0  0  0  0  0  0
   -0.2257    1.2225   -0.0000 C   0  0  0  0  0  0  0  0  0  0  0  0
   -1.6927    1.7679   -0.0000 C   0  0  0  0  0  0  0  0  0  0  0  0
    0.9216    2.2193   -0.0000 C   0  0  0  0  0  0  0  0  0  0  0  0
   -2.6519    0.9968   -0.0000 Cl  0  0  0  0  0  0  0  0  0  0  0  0
   -1.9748    3.2913   -0.0000 C   0  0  0  0  0  0  0  0  0  0  0  0
    0.6395    3.7427   -0.0000 C   0  0  0  0  0  0  0  0  0  0  0  0
   -0.8275    4.2881   -0.0000 C   0  0  0  0  0  0  0  0  0  0  0  0
    1.7867    4.7583   -0.0000 C   0  0  0  0  0  0  0  0  0  0  0  0
    1.7679    2.3886   -0.0000 C   0  0  0  0  0  0  0  0  0  0  0  0
    0.3573    4.7771   -0.0000 C   0  0  0  0  0  0  0  0  0  0  0  0
    2.4638    3.5734   -0.0000 C   0  0  0  0  0  0  0  0  0  0  0  0
    0.3385    2.4074   -0.0000 C   0  0  0  0  0  0  0  0  0  0  0  0
   -0.3573    3.5922   -0.0000 N   0  0  0  0  0  0  0  0  0  0  0  0
  1  2  1  0
  2  3  2  0
  2  4  1  0
  3  5  1  0
  3  6  1  0
  4  7  2  0
  6  8  2  0
  7  9  1  0
  9 10  1  0
  9 11  1  0
  9 12  1  0
 10 13  1  0
 11 14  1  0
  7  8  1  0
 10 12  1  0
 13 14  1  0
M  END
>  <MolRegNo>  (1) 
449148

>  <m>  (1) 
=

>  <Value>  (1) 
7000

>  <Unit>  (1) 
nM

>  <Type>  (1) 
IC50

>  <pValue>  (1) 
5.16

>  <Ligand Efficiency>  (1) 
0

>  <Binding Efficiency>  (1) 
0

>  <Surface Efficiency>  (1) 
0

>  <Assay Index>  (1) 
342264

>  <Assay Category>  (1) 


>  <Assay Organism>  (1) 


>  <Target ID>  (1) 
11365

>  <Target Name>  (1) 
Cytochrome P450 2D6

>  <Target Organism>  (1) 
Homo sapiens

>  <Target Description>  (1) 
Target is a single protein chain

>  <Sequence Accession>  (1) 
P10635

>  <Reference>  (1) 
Bioorg Med Chem Lett 18 (23), 6062-6066 (2008)

>  <Pubmed ID>  (1) 
18954985

>  <DOI>  (1) 
10.1016/j.bmcl.2008.10.025

$$$$
