4wnv_ligand_159
     RDKit          2D

 26 29  0  0  0  0  0  0  0  0999 V2000
    0.0000   -0.0000   -0.0000 O   0  0  0  0  0  0  0  0  0  0  0  0
   -0.7987    1.2803   -0.0000 C   0  0  0  0  0  0  0  0  0  0  0  0
   -0.1057    2.6075   -0.0000 N   0  0  0  0  0  0  0  0  0  0  0  0
   -2.3022    1.2450   -0.0000 C   0  0  0  0  0  0  0  0  0  0  0  0
   -0.9044    3.8878   -0.0000 C   0  0  0  0  0  0  0  0  0  0  0  0
    1.3742    2.6663   -0.0000 C   0  0  0  0  0  0  0  0  0  0  0  0
   -0.2114    5.2151   -0.0000 C   0  0  0  0  0  0  0  0  0  0  0  0
   -2.4079    3.8526   -0.0000 C   0  0  0  0  0  0  0  0  0  0  0  0
   -1.0101    6.4954   -0.0000 C   0  0  0  0  0  0  0  0  0  0  0  0
   -3.2066    5.1329   -0.0000 C   0  0  0  0  0  0  0  0  0  0  0  0
   -2.5136    6.4601   -0.0000 C   0  0  0  0  0  0  0  0  0  0  0  0
   -3.3123    7.7404   -0.0000 N   0  0  0  0  0  0  0  0  0  0  0  0
   -2.6193    9.0677   -0.0000 C   0  0  0  0  0  0  0  0  0  0  0  0
   -3.4180   10.3480   -0.0000 C   0  0  0  0  0  0  0  0  0  0  0  0
   -1.1393    9.1264   -0.0000 C   0  0  0  0  0  0  0  0  0  0  0  0
   -2.7250   11.6752   -0.0000 C   0  0  0  0  0  0  0  0  0  0  0  0
   -4.9214   10.3127   -0.0000 C   0  0  0  0  0  0  0  0  0  0  0  0
   -0.4463   10.4537   -0.0000 C   0  0  0  0  0  0  0  0  0  0  0  0
   -1.2450   11.7339   -0.0000 N   0  0  0  0  0  0  0  0  0  0  0  0
   -3.5237   12.9555   -0.0000 C   0  0  0  0  0  0  0  0  0  0  0  0
   -5.8963    9.1851   -0.0000 N   0  0  0  0  0  0  0  0  0  0  0  0
   -5.7202   11.5930   -0.0000 C   0  0  0  0  0  0  0  0  0  0  0  0
    1.0336   10.5124   -0.0000 C   0  0  0  0  0  0  0  0  0  0  0  0
   -5.0272   12.9203   -0.0000 C   0  0  0  0  0  0  0  0  0  0  0  0
   -7.2941    9.7607   -0.0000 C   0  0  0  0  0  0  0  0  0  0  0  0
   -7.1766   11.2524   -0.0000 N   0  0  0  0  0  0  0  0  0  0  0  0
  1  2  2  0
  2  3  1  0
  2  4  1  0
  3  5  1  0
  3  6  1  0
  5  7  2  0
  5  8  1  0
  7  9  1  0
  8 10  2  0
  9 11  2  0
 11 12  1  0
 12 13  1  0
 13 14  1  0
 13 15  2  0
 14 16  2  0
 14 17  1  0
 15 18  1  0
 16 19  1  0
 16 20  1  0
 17 21  1  0
 17 22  2  0
 18 23  1  0
 20 24  2  0
 21 25  1  0
 22 26  1  0
 10 11  1  0
 18 19  2  0
 22 24  1  0
 25 26  2  0
M  END
>  <MolRegNo>  (1) 
314378

>  <m>  (1) 
=

>  <Value>  (1) 
18100

>  <Unit>  (1) 
nM

>  <Type>  (1) 
IC50

>  <pValue>  (1) 
4.74

>  <Ligand Efficiency>  (1) 
0

>  <Binding Efficiency>  (1) 
0

>  <Surface Efficiency>  (1) 
0

>  <Assay Index>  (1) 
237541

>  <Assay Category>  (1) 


>  <Assay Organism>  (1) 


>  <Target ID>  (1) 
11365

>  <Target Name>  (1) 
Cytochrome P450 2D6

>  <Target Organism>  (1) 
Homo sapiens

>  <Target Description>  (1) 
Target is a single protein chain

>  <Sequence Accession>  (1) 
P10635

>  <Reference>  (1) 
J Med Chem 47 (22), 5340-5346 (2004)

>  <Pubmed ID>  (1) 
15481972

>  <DOI>  (1) 
10.1021/jm049934e

$$$$
