4wnv_ligand_933
     RDKit          2D

 30 33  0  0  1  0  0  0  0  0999 V2000
    0.0000   -0.0000   -0.0000 F   0  0  0  0  0  0  0  0  0  0  0  0
   -1.3078    0.7609   -0.0000 C   0  0  0  0  0  0  0  0  0  0  0  0
   -1.3197   -0.7252   -0.0000 F   0  0  0  0  0  0  0  0  0  0  0  0
   -0.0238    1.5337   -0.0000 F   0  0  0  0  0  0  0  0  0  0  0  0
   -2.6275    1.5218   -0.0000 O   0  0  0  0  0  0  0  0  0  0  0  0
   -3.9353    0.7728   -0.0000 C   0  0  0  0  0  0  0  0  0  0  0  0
   -5.2431    1.5337   -0.0000 C   0  0  0  0  0  0  0  0  0  0  0  0
   -3.9472   -0.7252   -0.0000 C   0  0  0  0  0  0  0  0  0  0  0  0
   -6.5510    0.7966   -0.0000 C   0  0  0  0  0  0  0  0  0  0  0  0
   -5.2669   -1.4624   -0.0000 C   0  0  0  0  0  0  0  0  0  0  0  0
   -6.5628   -0.7015   -0.0000 C   0  0  0  0  0  0  0  0  0  0  0  0
   -7.8588    1.5575   -0.0000 C   0  0  0  0  0  0  0  0  0  0  0  0
   -9.1666    0.8204   -0.0000 N   0  0  0  0  0  0  0  0  0  0  0  0
  -10.4744    1.5813   -0.0000 C   0  0  0  0  0  0  0  0  0  0  0  0
   -9.1785   -0.6658   -0.0000 C   0  0  0  0  0  0  0  0  0  0  0  0
  -10.4863    3.0912   -0.0000 O   0  0  0  0  0  0  0  0  0  0  0  0
  -11.7822    0.8441   -0.0000 C   0  0  0  0  0  0  0  0  0  0  0  0
   -7.9658   -1.5337   -0.0000 C   0  0  0  0  0  0  0  0  0  0  0  0
  -10.4031   -1.5337   -0.0000 C   0  0  0  0  0  0  0  0  0  0  0  0
  -13.0306    1.7120   -0.0000 N   0  0  0  0  0  0  0  0  0  0  0  0
  -12.2459   -0.5826   -0.0000 C   0  0  0  0  0  0  0  0  0  0  0  0
   -8.4413   -2.9485   -0.0000 C   0  0  0  0  0  0  0  0  0  0  0  0
   -9.9394   -2.9485   -0.0000 C   0  0  0  0  0  0  0  0  0  0  0  0
  -14.2433    0.8204   -0.0000 C   0  0  0  0  0  0  0  0  0  0  0  0
  -13.7558   -0.5945   -0.0000 N   0  0  0  0  0  0  0  0  0  0  0  0
   -8.0014   -4.3633   -0.0000 C   0  0  0  0  0  0  0  0  0  0  0  0
  -10.4149   -4.3633   -0.0000 C   0  0  0  0  0  0  0  0  0  0  0  0
  -14.6356   -1.8072   -0.0000 C   0  0  0  0  0  0  0  0  0  0  0  0
   -9.2260   -5.2194   -0.0000 N   0  0  0  0  0  0  0  0  0  0  0  0
   -9.2498   -6.7055   -0.0000 C   0  0  0  0  0  0  0  0  0  0  0  0
  1  2  1  0
  2  3  1  0
  2  4  1  0
  2  5  1  0
  5  6  1  0
  6  7  2  0
  6  8  1  0
  7  9  1  0
  8 10  2  0
  9 11  2  0
  9 12  1  0
 12 13  1  0
 13 14  1  0
 15 13  1  1
 14 16  2  0
 14 17  1  0
 15 18  1  0
 15 19  1  0
 17 20  1  0
 17 21  2  0
 22 18  1  1
 23 19  1  1
 20 24  2  0
 21 25  1  0
 22 26  1  0
 23 27  1  0
 25 28  1  0
 26 29  1  0
 29 30  1  0
 10 11  1  0
 22 23  1  0
 24 25  1  0
 27 29  1  0
M  END
>  <MolRegNo>  (1) 
600427

>  <m>  (1) 
=

>  <Value>  (1) 
7100

>  <Unit>  (1) 
nM

>  <Type>  (1) 
IC50

>  <pValue>  (1) 
5.15

>  <Ligand Efficiency>  (1) 
0

>  <Binding Efficiency>  (1) 
0

>  <Surface Efficiency>  (1) 
0

>  <Assay Index>  (1) 
457653

>  <Assay Category>  (1) 


>  <Assay Organism>  (1) 


>  <Target ID>  (1) 
11365

>  <Target Name>  (1) 
Cytochrome P450 2D6

>  <Target Organism>  (1) 
Homo sapiens

>  <Target Description>  (1) 
Target is a single protein chain

>  <Sequence Accession>  (1) 
P10635

>  <Reference>  (1) 
Bioorg Med Chem Lett 20 (3), 907-911 (2010)

>  <Pubmed ID>  (1) 
20045321

>  <DOI>  (1) 
10.1016/j.bmcl.2009.12.071

$$$$
