4wnv_ligand_344
     RDKit          2D

 33 37  0  0  1  0  0  0  0  0999 V2000
    0.0000   -0.0000   -0.0000 O   0  0  0  0  0  0  0  0  0  0  0  0
    0.7475   -1.2814   -0.0000 C   0  0  0  0  0  0  0  0  0  0  0  0
    2.2306   -1.2695   -0.0000 N   0  0  0  0  0  0  0  0  0  0  0  0
   -0.0237   -2.5746   -0.0000 C   0  0  0  0  0  0  0  0  0  0  0  0
    2.9662   -2.5628   -0.0000 C   0  0  0  0  0  0  0  0  0  0  0  0
    0.7237   -3.8679   -0.0000 C   0  0  0  0  0  0  0  0  0  0  0  0
   -1.5305   -2.5628   -0.0000 C   0  0  0  0  0  0  0  0  0  0  0  0
    2.2068   -3.8560   -0.0000 C   0  0  0  0  0  0  0  0  0  0  0  0
   -0.0356   -5.1493   -0.0000 N   0  0  0  0  0  0  0  0  0  0  0  0
   -2.4323   -3.7611   -0.0000 N   0  0  0  0  0  0  0  0  0  0  0  0
   -2.4323   -1.3407   -0.0000 N   0  0  0  0  0  0  0  0  0  0  0  0
   -0.0593   -6.6324   -0.0000 C   0  0  0  0  0  0  0  0  0  0  0  0
   -3.8798   -3.2865   -0.0000 C   0  0  0  0  0  0  0  0  0  0  0  0
   -3.8798   -1.7797   -0.0000 C   0  0  0  0  0  0  0  0  0  0  0  0
    1.2221   -7.3799   -0.0000 C   0  0  0  0  0  0  0  0  0  0  0  0
   -1.3763   -7.3561   -0.0000 C   0  0  0  0  0  0  0  0  0  0  0  0
   -5.1849   -4.0221   -0.0000 C   0  0  0  0  0  0  0  0  0  0  0  0
   -5.1849   -1.0204   -0.0000 C   0  0  0  0  0  0  0  0  0  0  0  0
    2.5153   -6.6324   -0.0000 O   0  0  0  0  0  0  0  0  0  0  0  0
   -1.4000   -8.8392   -0.0000 C   0  0  0  0  0  0  0  0  0  0  0  0
   -6.5019   -3.2628   -0.0000 C   0  0  0  0  0  0  0  0  0  0  0  0
   -5.1967   -5.5171   -0.0000 C   0  0  0  0  0  0  0  0  0  0  0  0
   -6.5019   -1.7560   -0.0000 C   0  0  0  0  0  0  0  0  0  0  0  0
   -2.7170   -9.5630   -0.0000 C   0  0  0  0  0  0  0  0  0  0  0  0
   -0.1186   -9.5748   -0.0000 C   0  0  0  0  0  0  0  0  0  0  0  0
   -7.8070   -0.9966   -0.0000 N   0  0  0  0  0  0  0  0  0  0  0  0
   -2.7407  -11.0461   -0.0000 C   0  0  0  0  0  0  0  0  0  0  0  0
   -0.1424  -11.0579   -0.0000 C   0  0  0  0  0  0  0  0  0  0  0  0
   -7.9850    0.5102   -0.0000 C   0  0  0  0  0  0  0  0  0  0  0  0
   -9.1952   -1.6017   -0.0000 C   0  0  0  0  0  0  0  0  0  0  0  0
   -1.4594  -11.7935   -0.0000 C   0  0  0  0  0  0  0  0  0  0  0  0
   -9.4680    0.8305   -0.0000 N   0  0  0  0  0  0  0  0  0  0  0  0
  -10.2155   -0.4627   -0.0000 C   0  0  0  0  0  0  0  0  0  0  0  0
  1  2  2  0
  2  3  1  0
  2  4  1  0
  3  5  1  0
  4  6  2  0
  4  7  1  0
  5  8  2  0
  6  9  1  0
  7 10  2  0
  7 11  1  0
 12  9  1  0
 10 13  1  0
 11 14  1  0
 12 15  1  6
 12 16  1  0
 13 17  2  0
 14 18  2  0
 15 19  1  0
 16 20  1  0
 17 21  1  0
 17 22  1  0
 18 23  1  0
 20 24  2  0
 20 25  1  0
 23 26  1  0
 24 27  1  0
 25 28  2  0
 26 29  1  0
 26 30  1  0
 27 31  2  0
 29 32  2  0
 30 33  2  0
  6  8  1  0
 13 14  1  0
 21 23  2  0
 28 31  1  0
 32 33  1  0
M  END
>  <MolRegNo>  (1) 
383732

>  <m>  (1) 
=

>  <Value>  (1) 
560

>  <Unit>  (1) 
nM

>  <Type>  (1) 
IC50

>  <pValue>  (1) 
6.25

>  <Ligand Efficiency>  (1) 
0

>  <Binding Efficiency>  (1) 
0

>  <Surface Efficiency>  (1) 
0

>  <Assay Index>  (1) 
287463

>  <Assay Category>  (1) 


>  <Assay Organism>  (1) 


>  <Target ID>  (1) 
11365

>  <Target Name>  (1) 
Cytochrome P450 2D6

>  <Target Organism>  (1) 
Homo sapiens

>  <Target Description>  (1) 
Target is a single protein chain

>  <Sequence Accession>  (1) 
P10635

>  <Reference>  (1) 
Bioorg Med Chem Lett 17 (11), 3072-3076 (2007)

>  <Pubmed ID>  (1) 
17398093

>  <DOI>  (1) 
10.1016/j.bmcl.2007.03.048

$$$$
