4wnv_ligand_461
     RDKit          2D

 40 43  0  0  1  0  0  0  0  0999 V2000
    0.0000   -0.0000   -0.0000 S   0  0  0  0  0  0  0  0  0  0  0  0
    1.2033    0.8935   -0.0000 C   0  0  0  0  0  0  0  0  0  0  0  0
    0.4527   -1.4177   -0.0000 C   0  0  0  0  0  0  0  0  0  0  0  0
    2.4066    0.0357   -0.0000 N   0  0  0  0  0  0  0  0  0  0  0  0
    1.1914    2.4066   -0.0000 N   0  0  0  0  0  0  0  0  0  0  0  0
    1.9419   -1.4058   -0.0000 C   0  0  0  0  0  0  0  0  0  0  0  0
   -0.3336   -2.6806   -0.0000 C   0  0  0  0  0  0  0  0  0  0  0  0
   -0.1191    3.1810   -0.0000 C   0  0  0  0  0  0  0  0  0  0  0  0
    2.8116   -2.5972   -0.0000 C   0  0  0  0  0  0  0  0  0  0  0  0
   -1.8466   -2.6449   -0.0000 O   0  0  0  0  0  0  0  0  0  0  0  0
    0.3812   -3.9792   -0.0000 C   0  0  0  0  0  0  0  0  0  0  0  0
   -1.4296    2.4423   -0.0000 O   0  0  0  0  0  0  0  0  0  0  0  0
   -0.1311    4.6940   -0.0000 N   0  0  0  0  0  0  0  0  0  0  0  0
   -1.4416    5.4446   -0.0000 C   0  0  0  0  0  0  0  0  0  0  0  0
   -1.4535    6.9695   -0.0000 C   0  0  0  0  0  0  0  0  0  0  0  0
   -2.8831    4.9919   -0.0000 C   0  0  0  0  0  0  0  0  0  0  0  0
   -2.8950    7.4461   -0.0000 C   0  0  0  0  0  0  0  0  0  0  0  0
   -0.1549    7.7320   -0.0000 C   0  0  0  0  0  0  0  0  0  0  0  0
   -3.7767    6.2190   -0.0000 N   0  0  0  0  0  0  0  0  0  0  0  0
    1.1318    6.9815   -0.0000 N   0  0  0  0  0  0  0  0  0  0  0  0
   -5.2897    6.2309   -0.0000 C   0  0  0  0  0  0  0  0  0  0  0  0
    2.4185    7.7439   -0.0000 C   0  0  0  0  0  0  0  0  0  0  0  0
    1.1199    5.4803   -0.0000 C   0  0  0  0  0  0  0  0  0  0  0  0
   -6.0522    7.5414   -0.0000 O   0  0  0  0  0  0  0  0  0  0  0  0
   -6.0522    4.9442   -0.0000 O   0  0  0  0  0  0  0  0  0  0  0  0
    3.7052    6.9934   -0.0000 C   0  0  0  0  0  0  0  0  0  0  0  0
    2.4066    4.7417   -0.0000 C   0  0  0  0  0  0  0  0  0  0  0  0
   -7.5652    4.9561   -0.0000 C   0  0  0  0  0  0  0  0  0  0  0  0
    3.6813    5.5041   -0.0000 C   0  0  0  0  0  0  0  0  0  0  0  0
    5.0038    7.7558   -0.0000 C   0  0  0  0  0  0  0  0  0  0  0  0
   -9.0783    4.9680   -0.0000 C   0  0  0  0  0  0  0  0  0  0  0  0
   -7.5771    3.4669   -0.0000 C   0  0  0  0  0  0  0  0  0  0  0  0
   -7.5771    6.4692   -0.0000 C   0  0  0  0  0  0  0  0  0  0  0  0
    6.2905    7.0053   -0.0000 C   0  0  0  0  0  0  0  0  0  0  0  0
    6.2547    5.5161   -0.0000 C   0  0  0  0  0  0  0  0  0  0  0  0
    7.5771    7.7678   -0.0000 C   0  0  0  0  0  0  0  0  0  0  0  0
    7.5414    4.7774   -0.0000 C   0  0  0  0  0  0  0  0  0  0  0  0
    8.8638    7.0291   -0.0000 C   0  0  0  0  0  0  0  0  0  0  0  0
    8.8400    5.5280   -0.0000 C   0  0  0  0  0  0  0  0  0  0  0  0
   10.1267    4.7893   -0.0000 F   0  0  0  0  0  0  0  0  0  0  0  0
  1  2  1  0
  1  3  1  0
  2  4  2  0
  2  5  1  0
  3  6  2  0
  3  7  1  0
  5  8  1  0
  6  9  1  0
  7 10  2  0
  7 11  1  0
  8 12  2  0
  8 13  1  0
 14 13  1  6
 14 15  1  0
 14 16  1  0
 15 17  1  0
 15 18  1  1
 16 19  1  0
 18 20  1  0
 19 21  1  0
 20 22  1  0
 20 23  1  0
 21 24  2  0
 21 25  1  0
 22 26  1  0
 23 27  1  0
 25 28  1  0
 26 29  1  0
 26 30  1  6
 28 31  1  0
 28 32  1  0
 28 33  1  0
 30 34  1  0
 34 35  2  0
 34 36  1  0
 35 37  1  0
 36 38  2  0
 37 39  2  0
 39 40  1  0
  4  6  1  0
 17 19  1  0
 27 29  1  0
 38 39  1  0
M  END
>  <MolRegNo>  (1) 
421472

>  <m>  (1) 
=

>  <Value>  (1) 
800

>  <Unit>  (1) 
nM

>  <Type>  (1) 
IC50

>  <pValue>  (1) 
6.1

>  <Ligand Efficiency>  (1) 
0

>  <Binding Efficiency>  (1) 
0

>  <Surface Efficiency>  (1) 
0

>  <Assay Index>  (1) 
307824

>  <Assay Category>  (1) 


>  <Assay Organism>  (1) 
Homo sapiens

>  <Target ID>  (1) 
11365

>  <Target Name>  (1) 
Cytochrome P450 2D6

>  <Target Organism>  (1) 
Homo sapiens

>  <Target Description>  (1) 
Target is a single protein chain

>  <Sequence Accession>  (1) 
P10635

>  <Reference>  (1) 
Bioorg Med Chem Lett 17 (11), 2992-2997 (2007)

>  <Pubmed ID>  (1) 
17418570

>  <DOI>  (1) 
10.1016/j.bmcl.2007.03.065

$$$$
