4wnv_ligand_358
     RDKit          2D

 28 31  0  0  1  0  0  0  0  0999 V2000
    0.0000   -0.0000   -0.0000 Cl  0  0  0  0  0  0  0  0  0  0  0  0
   -1.3106   -0.7320   -0.0000 C   0  0  0  0  0  0  0  0  0  0  0  0
   -1.3224   -2.2197   -0.0000 C   0  0  0  0  0  0  0  0  0  0  0  0
   -2.6211    0.0236   -0.0000 C   0  0  0  0  0  0  0  0  0  0  0  0
   -2.6329   -2.9517   -0.0000 C   0  0  0  0  0  0  0  0  0  0  0  0
   -3.9199   -0.7202   -0.0000 C   0  0  0  0  0  0  0  0  0  0  0  0
   -3.9317   -2.1843   -0.0000 C   0  0  0  0  0  0  0  0  0  0  0  0
   -5.2423   -2.9163   -0.0000 C   0  0  0  0  0  0  0  0  0  0  0  0
   -6.5410   -2.1607   -0.0000 C   0  0  0  0  0  0  0  0  0  0  0  0
   -5.2541   -4.4040   -0.0000 C   0  0  0  0  0  0  0  0  0  0  0  0
   -7.8398   -2.8927   -0.0000 C   0  0  0  0  0  0  0  0  0  0  0  0
   -6.5646   -5.1360   -0.0000 C   0  0  0  0  0  0  0  0  0  0  0  0
   -9.1503   -2.1370   -0.0000 C   0  0  0  0  0  0  0  0  0  0  0  0
   -7.8634   -4.3685   -0.0000 C   0  0  0  0  0  0  0  0  0  0  0  0
   -9.1621   -0.6258   -0.0000 O   0  0  0  0  0  0  0  0  0  0  0  0
  -10.4609   -2.8691   -0.0000 N   0  0  0  0  0  0  0  0  0  0  0  0
   -9.1621   -5.1124   -0.0000 N   0  0  0  0  0  0  0  0  0  0  0  0
  -10.4609   -4.3449   -0.0000 C   0  0  0  0  0  0  0  0  0  0  0  0
  -11.7715   -2.1134   -0.0000 C   0  0  0  0  0  0  0  0  0  0  0  0
  -11.7833   -0.6022   -0.0000 C   0  0  0  0  0  0  0  0  0  0  0  0
  -10.4963    0.1653   -0.0000 C   0  0  0  0  0  0  0  0  0  0  0  0
  -13.0938    0.1535   -0.0000 C   0  0  0  0  0  0  0  0  0  0  0  0
  -10.5081    1.6648   -0.0000 N   0  0  0  0  0  0  0  0  0  0  0  0
  -13.1056    1.6648   -0.0000 C   0  0  0  0  0  0  0  0  0  0  0  0
   -9.2212    2.4204   -0.0000 C   0  0  0  0  0  0  0  0  0  0  0  0
  -11.8069    2.4322   -0.0000 C   0  0  0  0  0  0  0  0  0  0  0  0
   -7.9342    1.6766   -0.0000 C   0  0  0  0  0  0  0  0  0  0  0  0
   -9.2330    3.9317   -0.0000 C   0  0  0  0  0  0  0  0  0  0  0  0
  1  2  1  0
  2  3  2  0
  2  4  1  0
  3  5  1  0
  4  6  2  0
  5  7  2  0
  7  8  1  0
  8  9  2  0
  8 10  1  0
  9 11  1  0
 10 12  2  0
 11 13  1  0
 11 14  2  0
 13 15  2  0
 13 16  1  0
 14 17  1  0
 16 18  1  0
 16 19  1  0
 20 19  1  1
 20 21  1  0
 20 22  1  0
 21 23  1  0
 22 24  1  0
 23 25  1  0
 23 26  1  0
 25 27  1  0
 25 28  1  0
  6  7  1  0
 12 14  1  0
 17 18  2  0
 24 26  1  0
M  END
>  <MolRegNo>  (1) 
389221

>  <m>  (1) 
=

>  <Value>  (1) 
200

>  <Unit>  (1) 
nM

>  <Type>  (1) 
IC50

>  <pValue>  (1) 
6.7

>  <Ligand Efficiency>  (1) 
0

>  <Binding Efficiency>  (1) 
0

>  <Surface Efficiency>  (1) 
0

>  <Assay Index>  (1) 
295387

>  <Assay Category>  (1) 


>  <Assay Organism>  (1) 


>  <Target ID>  (1) 
11365

>  <Target Name>  (1) 
Cytochrome P450 2D6

>  <Target Organism>  (1) 
Homo sapiens

>  <Target Description>  (1) 
Target is a single protein chain

>  <Sequence Accession>  (1) 
P10635

>  <Reference>  (1) 
J Med Chem 50 (21), 5202-5216 (2007)

>  <Pubmed ID>  (1) 
17887659

>  <DOI>  (1) 
10.1021/jm070071+

$$$$
