4wnv_ligand_726
     RDKit          2D

 34 37  0  0  0  0  0  0  0  0999 V2000
    0.0000   -0.0000   -0.0000 S   0  0  0  0  0  0  0  0  0  0  0  0
   -0.4838    1.4279   -0.0000 C   0  0  0  0  0  0  0  0  0  0  0  0
    1.4869    0.0236   -0.0000 C   0  0  0  0  0  0  0  0  0  0  0  0
    0.7081    2.3248   -0.0000 N   0  0  0  0  0  0  0  0  0  0  0  0
   -1.7938    2.1714   -0.0000 N   0  0  0  0  0  0  0  0  0  0  0  0
    1.9236    1.4633   -0.0000 C   0  0  0  0  0  0  0  0  0  0  0  0
   -1.8174    3.6819   -0.0000 C   0  0  0  0  0  0  0  0  0  0  0  0
    3.3279    1.9472   -0.0000 C   0  0  0  0  0  0  0  0  0  0  0  0
   -0.5428    4.4490   -0.0000 O   0  0  0  0  0  0  0  0  0  0  0  0
   -3.1273    4.4254   -0.0000 N   0  0  0  0  0  0  0  0  0  0  0  0
   -4.4254    3.6819   -0.0000 C   0  0  0  0  0  0  0  0  0  0  0  0
   -5.7471    4.4254   -0.0000 C   0  0  0  0  0  0  0  0  0  0  0  0
   -4.4254    2.2068   -0.0000 C   0  0  0  0  0  0  0  0  0  0  0  0
   -3.1509    2.9503   -0.0000 C   0  0  0  0  0  0  0  0  0  0  0  0
   -7.0452    3.6937   -0.0000 O   0  0  0  0  0  0  0  0  0  0  0  0
   -5.7589    5.9359   -0.0000 C   0  0  0  0  0  0  0  0  0  0  0  0
   -5.7235    1.4633   -0.0000 N   0  0  0  0  0  0  0  0  0  0  0  0
   -7.0452    2.2068   -0.0000 C   0  0  0  0  0  0  0  0  0  0  0  0
   -7.0688    6.6912   -0.0000 N   0  0  0  0  0  0  0  0  0  0  0  0
   -5.7235   -0.0236   -0.0000 C   0  0  0  0  0  0  0  0  0  0  0  0
   -8.3433    1.4633   -0.0000 O   0  0  0  0  0  0  0  0  0  0  0  0
   -8.3669    5.9595   -0.0000 C   0  0  0  0  0  0  0  0  0  0  0  0
   -7.0806    8.2017   -0.0000 C   0  0  0  0  0  0  0  0  0  0  0  0
   -9.6650    6.7148   -0.0000 C   0  0  0  0  0  0  0  0  0  0  0  0
   -8.3787    8.9688   -0.0000 C   0  0  0  0  0  0  0  0  0  0  0  0
   -9.6768    8.2253   -0.0000 C   0  0  0  0  0  0  0  0  0  0  0  0
  -10.9749    5.9831   -0.0000 C   0  0  0  0  0  0  0  0  0  0  0  0
  -12.2848    6.7384   -0.0000 C   0  0  0  0  0  0  0  0  0  0  0  0
  -12.2966    8.2371   -0.0000 C   0  0  0  0  0  0  0  0  0  0  0  0
  -13.5830    5.9949   -0.0000 C   0  0  0  0  0  0  0  0  0  0  0  0
  -13.6066    8.9924   -0.0000 C   0  0  0  0  0  0  0  0  0  0  0  0
  -14.8929    6.7502   -0.0000 C   0  0  0  0  0  0  0  0  0  0  0  0
  -14.9165    8.2607   -0.0000 C   0  0  0  0  0  0  0  0  0  0  0  0
  -16.2264    9.0160   -0.0000 F   0  0  0  0  0  0  0  0  0  0  0  0
  1  2  1  0
  1  3  1  0
  2  4  2  0
  2  5  1  0
  3  6  2  0
  5  7  1  0
  6  8  1  0
  7  9  2  0
  7 10  1  0
 10 11  1  0
 11 12  1  0
 11 13  1  0
 11 14  1  0
 12 15  1  0
 12 16  1  0
 13 17  1  0
 15 18  1  0
 16 19  1  0
 17 20  1  0
 18 21  2  0
 19 22  1  0
 19 23  1  0
 22 24  1  0
 23 25  1  0
 24 26  1  0
 24 27  1  1
 27 28  1  0
 28 29  2  0
 28 30  1  0
 29 31  1  0
 30 32  2  0
 31 33  2  0
 33 34  1  0
  4  6  1  0
 17 18  1  0
 25 26  1  0
 32 33  1  0
M  END
>  <MolRegNo>  (1) 
473562

>  <m>  (1) 
=

>  <Value>  (1) 
2100

>  <Unit>  (1) 
nM

>  <Type>  (1) 
IC50

>  <pValue>  (1) 
5.68

>  <Ligand Efficiency>  (1) 
0

>  <Binding Efficiency>  (1) 
0

>  <Surface Efficiency>  (1) 
0

>  <Assay Index>  (1) 
409097

>  <Assay Category>  (1) 


>  <Assay Organism>  (1) 


>  <Target ID>  (1) 
11365

>  <Target Name>  (1) 
Cytochrome P450 2D6

>  <Target Organism>  (1) 
Homo sapiens

>  <Target Description>  (1) 
Target is a single protein chain

>  <Sequence Accession>  (1) 
P10635

>  <Reference>  (1) 
Bioorg Med Chem Lett 19 (1), 96-99 (2009)

>  <Pubmed ID>  (1) 
19010676

>  <DOI>  (1) 
10.1016/j.bmcl.2008.11.002

$$$$
