4wnv_ligand_458
     RDKit          2D

 35 38  0  0  1  0  0  0  0  0999 V2000
    0.0000   -0.0000   -0.0000 S   0  0  0  0  0  0  0  0  0  0  0  0
   -1.0877   -1.0398   -0.0000 O   0  0  0  0  0  0  0  0  0  0  0  0
   -0.8486    1.2550   -0.0000 O   0  0  0  0  0  0  0  0  0  0  0  0
    0.8845   -1.2191   -0.0000 C   0  0  0  0  0  0  0  0  0  0  0  0
    0.8725    1.2430   -0.0000 C   0  0  0  0  0  0  0  0  0  0  0  0
    2.3187   -0.7410   -0.0000 C   0  0  0  0  0  0  0  0  0  0  0  0
    2.3068    0.7889   -0.0000 C   0  0  0  0  0  0  0  0  0  0  0  0
    3.6096   -1.4701   -0.0000 N   0  0  0  0  0  0  0  0  0  0  0  0
    3.6096    1.5538   -0.0000 C   0  0  0  0  0  0  0  0  0  0  0  0
    3.5976   -2.9642   -0.0000 C   0  0  0  0  0  0  0  0  0  0  0  0
    4.9004    0.8008   -0.0000 N   0  0  0  0  0  0  0  0  0  0  0  0
    2.2829   -3.7052   -0.0000 O   0  0  0  0  0  0  0  0  0  0  0  0
    4.8885   -3.7172   -0.0000 N   0  0  0  0  0  0  0  0  0  0  0  0
    6.1913    1.5657   -0.0000 C   0  0  0  0  0  0  0  0  0  0  0  0
    4.8885   -0.7052   -0.0000 C   0  0  0  0  0  0  0  0  0  0  0  0
    4.8765   -5.2112   -0.0000 C   0  0  0  0  0  0  0  0  0  0  0  0
    7.4821    0.8128   -0.0000 C   0  0  0  0  0  0  0  0  0  0  0  0
    6.1793   -1.4462   -0.0000 C   0  0  0  0  0  0  0  0  0  0  0  0
    3.6454   -6.0837   -0.0000 S   0  0  0  0  0  0  0  0  0  0  0  0
    6.0837   -6.0837   -0.0000 N   0  0  0  0  0  0  0  0  0  0  0  0
    7.4582   -0.6813   -0.0000 C   0  0  0  0  0  0  0  0  0  0  0  0
    8.7849    1.5777   -0.0000 C   0  0  0  0  0  0  0  0  0  0  0  0
    4.0996   -7.5060   -0.0000 C   0  0  0  0  0  0  0  0  0  0  0  0
    5.6056   -7.5060   -0.0000 C   0  0  0  0  0  0  0  0  0  0  0  0
   10.0758    0.8247   -0.0000 C   0  0  0  0  0  0  0  0  0  0  0  0
    3.3108   -8.7730   -0.0000 C   0  0  0  0  0  0  0  0  0  0  0  0
    6.4781   -8.7132   -0.0000 C   0  0  0  0  0  0  0  0  0  0  0  0
   10.0399   -0.6693   -0.0000 C   0  0  0  0  0  0  0  0  0  0  0  0
   11.3666    1.5897   -0.0000 C   0  0  0  0  0  0  0  0  0  0  0  0
    1.7928   -8.7371   -0.0000 O   0  0  0  0  0  0  0  0  0  0  0  0
    4.0279  -10.0758   -0.0000 C   0  0  0  0  0  0  0  0  0  0  0  0
   11.3308   -1.4104   -0.0000 C   0  0  0  0  0  0  0  0  0  0  0  0
   12.6575    0.8367   -0.0000 C   0  0  0  0  0  0  0  0  0  0  0  0
   12.6336   -0.6574   -0.0000 C   0  0  0  0  0  0  0  0  0  0  0  0
   13.9244   -1.3984   -0.0000 F   0  0  0  0  0  0  0  0  0  0  0  0
  1  2  2  0
  1  3  2  0
  1  4  1  0
  1  5  1  0
  4  6  1  0
  5  7  1  0
  6  8  1  6
  7  9  1  1
  8 10  1  0
  9 11  1  0
 10 12  2  0
 10 13  1  0
 11 14  1  0
 11 15  1  0
 13 16  1  0
 14 17  1  0
 15 18  1  0
 16 19  1  0
 16 20  2  0
 17 21  1  0
 17 22  1  6
 19 23  1  0
 20 24  1  0
 22 25  1  0
 23 26  1  0
 24 27  1  0
 25 28  2  0
 25 29  1  0
 26 30  2  0
 26 31  1  0
 28 32  1  0
 29 33  2  0
 32 34  2  0
 34 35  1  0
  6  7  1  0
 18 21  1  0
 23 24  2  0
 33 34  1  0
M  END
>  <MolRegNo>  (1) 
421477

>  <m>  (1) 
=

>  <Value>  (1) 
2100

>  <Unit>  (1) 
nM

>  <Type>  (1) 
IC50

>  <pValue>  (1) 
5.68

>  <Ligand Efficiency>  (1) 
0

>  <Binding Efficiency>  (1) 
0

>  <Surface Efficiency>  (1) 
0

>  <Assay Index>  (1) 
307824

>  <Assay Category>  (1) 


>  <Assay Organism>  (1) 
Homo sapiens

>  <Target ID>  (1) 
11365

>  <Target Name>  (1) 
Cytochrome P450 2D6

>  <Target Organism>  (1) 
Homo sapiens

>  <Target Description>  (1) 
Target is a single protein chain

>  <Sequence Accession>  (1) 
P10635

>  <Reference>  (1) 
Bioorg Med Chem Lett 17 (11), 2992-2997 (2007)

>  <Pubmed ID>  (1) 
17418570

>  <DOI>  (1) 
10.1016/j.bmcl.2007.03.065

$$$$
