4wnv_ligand_270
     RDKit          2D

 20 22  0  0  0  0  0  0  0  0999 V2000
    0.0000   -0.0000   -0.0000 Br  0  0  0  0  0  0  0  0  0  0  0  0
   -1.0640   -1.0525   -0.0000 C   0  0  0  0  0  0  0  0  0  0  0  0
   -0.0229   -2.1050   -0.0000 C   0  0  0  0  0  0  0  0  0  0  0  0
   -1.9677    0.1716   -0.0000 C   0  0  0  0  0  0  0  0  0  0  0  0
   -1.9563   -2.2652   -0.0000 C   0  0  0  0  0  0  0  0  0  0  0  0
    1.4072   -1.7046   -0.0000 C   0  0  0  0  0  0  0  0  0  0  0  0
   -0.4347   -3.5351   -0.0000 C   0  0  0  0  0  0  0  0  0  0  0  0
   -1.5216    1.6131   -0.0000 O   0  0  0  0  0  0  0  0  0  0  0  0
   -3.4092   -0.2974   -0.0000 C   0  0  0  0  0  0  0  0  0  0  0  0
   -1.4987   -3.6724   -0.0000 O   0  0  0  0  0  0  0  0  0  0  0  0
   -3.4092   -1.7961   -0.0000 C   0  0  0  0  0  0  0  0  0  0  0  0
    2.4482   -2.7457   -0.0000 C   0  0  0  0  0  0  0  0  0  0  0  0
    1.7847   -0.2402   -0.0000 C   0  0  0  0  0  0  0  0  0  0  0  0
    0.6063   -4.5876   -0.0000 C   0  0  0  0  0  0  0  0  0  0  0  0
   -4.7249    0.4576   -0.0000 C   0  0  0  0  0  0  0  0  0  0  0  0
   -4.7249   -2.5398   -0.0000 C   0  0  0  0  0  0  0  0  0  0  0  0
    2.0478   -4.1872   -0.0000 C   0  0  0  0  0  0  0  0  0  0  0  0
    3.2262    0.1602   -0.0000 C   0  0  0  0  0  0  0  0  0  0  0  0
   -6.0291   -0.2860   -0.0000 C   0  0  0  0  0  0  0  0  0  0  0  0
   -6.0405   -1.7733   -0.0000 C   0  0  0  0  0  0  0  0  0  0  0  0
  1  2  1  0
  2  3  1  0
  2  4  1  0
  2  5  1  0
  3  6  2  0
  3  7  1  0
  4  8  2  0
  4  9  1  0
  5 10  2  0
  5 11  1  0
  6 12  1  0
  6 13  1  0
  7 14  2  0
  9 15  2  0
 11 16  2  0
 12 17  2  0
 13 18  1  0
 15 19  1  0
 16 20  1  0
  9 11  1  0
 14 17  1  0
 19 20  2  0
M  END
>  <MolRegNo>  (1) 
342840

>  <m>  (1) 
=

>  <Value>  (1) 
83000

>  <Unit>  (1) 
nM

>  <Type>  (1) 
IC50

>  <pValue>  (1) 
4.08

>  <Ligand Efficiency>  (1) 
0

>  <Binding Efficiency>  (1) 
0

>  <Surface Efficiency>  (1) 
0

>  <Assay Index>  (1) 
259863

>  <Assay Category>  (1) 


>  <Assay Organism>  (1) 
Homo sapiens

>  <Target ID>  (1) 
11365

>  <Target Name>  (1) 
Cytochrome P450 2D6

>  <Target Organism>  (1) 
Homo sapiens

>  <Target Description>  (1) 
Target is a single protein chain

>  <Sequence Accession>  (1) 
P10635

>  <Reference>  (1) 
J Med Chem 49 (8), 2417-2430 (2006)

>  <Pubmed ID>  (1) 
16610785

>  <DOI>  (1) 
10.1021/jm0508538

$$$$
