4wnv_ligand_1081
     RDKit          2D

 22 24  0  0  0  0  0  0  0  0999 V2000
    0.0000   -0.0000   -0.0000 O   0  0  0  0  0  0  0  0  0  0  0  0
   -0.7688   -1.2892   -0.0000 C   0  0  0  0  0  0  0  0  0  0  0  0
   -0.0355   -2.5784   -0.0000 C   0  0  0  0  0  0  0  0  0  0  0  0
   -2.2827   -1.2774   -0.0000 C   0  0  0  0  0  0  0  0  0  0  0  0
    1.4429   -2.5547   -0.0000 C   0  0  0  0  0  0  0  0  0  0  0  0
   -0.8043   -3.8557   -0.0000 C   0  0  0  0  0  0  0  0  0  0  0  0
   -1.7978   -2.6848   -0.0000 C   0  0  0  0  0  0  0  0  0  0  0  0
   -3.7966   -1.3010   -0.0000 C   0  0  0  0  0  0  0  0  0  0  0  0
   -2.7794    0.1538   -0.0000 C   0  0  0  0  0  0  0  0  0  0  0  0
    2.1762   -3.8439   -0.0000 C   0  0  0  0  0  0  0  0  0  0  0  0
   -0.0710   -5.1449   -0.0000 C   0  0  0  0  0  0  0  0  0  0  0  0
   -2.9923   -3.5955   -0.0000 N   0  0  0  0  0  0  0  0  0  0  0  0
   -4.2342   -2.7321   -0.0000 C   0  0  0  0  0  0  0  0  0  0  0  0
   -4.2697    0.4613   -0.0000 C   0  0  0  0  0  0  0  0  0  0  0  0
    1.4193   -5.1331   -0.0000 C   0  0  0  0  0  0  0  0  0  0  0  0
    3.6310   -4.1396   -0.0000 C   0  0  0  0  0  0  0  0  0  0  0  0
   -4.7664    1.8924   -0.0000 C   0  0  0  0  0  0  0  0  0  0  0  0
    2.4128   -6.2330   -0.0000 N   0  0  0  0  0  0  0  0  0  0  0  0
    3.7848   -5.6180   -0.0000 N   0  0  0  0  0  0  0  0  0  0  0  0
   -6.2567    2.1999   -0.0000 C   0  0  0  0  0  0  0  0  0  0  0  0
   -3.7848    3.0396   -0.0000 C   0  0  0  0  0  0  0  0  0  0  0  0
   -5.5470    3.2052   -0.0000 C   0  0  0  0  0  0  0  0  0  0  0  0
  1  2  2  0
  2  3  1  0
  2  4  1  0
  3  5  2  0
  3  6  1  0
  4  7  1  0
  4  8  1  0
  4  9  1  0
  5 10  1  0
  6 11  2  0
  7 12  1  0
  8 13  1  0
  9 14  1  0
 10 15  2  0
 10 16  1  0
 14 17  1  0
 15 18  1  0
 16 19  2  0
 17 20  1  0
 17 21  1  0
 17 22  1  0
 11 15  1  0
 12 13  1  0
 18 19  1  0
M  END
>  <MolRegNo>  (1) 
690774

>  <m>  (1) 
=

>  <Value>  (1) 
14000

>  <Unit>  (1) 
nM

>  <Type>  (1) 
IC50

>  <pValue>  (1) 
4.85

>  <Ligand Efficiency>  (1) 
0

>  <Binding Efficiency>  (1) 
0

>  <Surface Efficiency>  (1) 
0

>  <Assay Index>  (1) 
497257

>  <Assay Category>  (1) 


>  <Assay Organism>  (1) 


>  <Target ID>  (1) 
11365

>  <Target Name>  (1) 
Cytochrome P450 2D6

>  <Target Organism>  (1) 
Homo sapiens

>  <Target Description>  (1) 
Target is a single protein chain

>  <Sequence Accession>  (1) 
P10635

>  <Reference>  (1) 
Bioorg Med Chem Lett 20 (18), 5559-5566 (2010)

>  <Pubmed ID>  (1) 
20691589

>  <DOI>  (1) 
10.1016/j.bmcl.2010.07.020

$$$$
