4wnv_ligand_326
     RDKit          2D

 29 31  0  0  0  0  0  0  0  0999 V2000
    0.0000   -0.0000   -0.0000 Cl  0  0  0  0  0  0  0  0  0  0  0  0
    1.2934    0.7594   -0.0000 C   0  0  0  0  0  0  0  0  0  0  0  0
    1.2815    2.2783   -0.0000 C   0  0  0  0  0  0  0  0  0  0  0  0
    2.5868    0.0237   -0.0000 C   0  0  0  0  0  0  0  0  0  0  0  0
    2.5631    3.0377   -0.0000 C   0  0  0  0  0  0  0  0  0  0  0  0
    3.8802    0.7832   -0.0000 C   0  0  0  0  0  0  0  0  0  0  0  0
    2.5512    4.5566   -0.0000 Cl  0  0  0  0  0  0  0  0  0  0  0  0
    3.8565    2.3020   -0.0000 C   0  0  0  0  0  0  0  0  0  0  0  0
    5.1736    0.0475   -0.0000 N   0  0  0  0  0  0  0  0  0  0  0  0
    6.4670    0.8069   -0.0000 C   0  0  0  0  0  0  0  0  0  0  0  0
    6.4433    2.3139   -0.0000 N   0  0  0  0  0  0  0  0  0  0  0  0
    7.7485    0.0712   -0.0000 N   0  0  0  0  0  0  0  0  0  0  0  0
    7.7248    3.0852   -0.0000 C   0  0  0  0  0  0  0  0  0  0  0  0
    9.0301    0.8306   -0.0000 C   0  0  0  0  0  0  0  0  0  0  0  0
    9.0301    2.3495   -0.0000 C   0  0  0  0  0  0  0  0  0  0  0  0
    7.7011    4.6040   -0.0000 C   0  0  0  0  0  0  0  0  0  0  0  0
   10.3116    3.1208   -0.0000 C   0  0  0  0  0  0  0  0  0  0  0  0
    6.1822    4.5922   -0.0000 F   0  0  0  0  0  0  0  0  0  0  0  0
    9.1962    4.6278   -0.0000 F   0  0  0  0  0  0  0  0  0  0  0  0
    7.6773    6.1229   -0.0000 F   0  0  0  0  0  0  0  0  0  0  0  0
   10.2997    4.6396   -0.0000 O   0  0  0  0  0  0  0  0  0  0  0  0
   11.6050    2.3851   -0.0000 N   0  0  0  0  0  0  0  0  0  0  0  0
   12.8865    3.1564   -0.0000 C   0  0  0  0  0  0  0  0  0  0  0  0
   14.1799    2.4207   -0.0000 C   0  0  0  0  0  0  0  0  0  0  0  0
   14.1681    0.9256   -0.0000 C   0  0  0  0  0  0  0  0  0  0  0  0
   15.4496    3.1920   -0.0000 C   0  0  0  0  0  0  0  0  0  0  0  0
   15.4615    0.1899   -0.0000 C   0  0  0  0  0  0  0  0  0  0  0  0
   16.7430    2.4681   -0.0000 C   0  0  0  0  0  0  0  0  0  0  0  0
   16.7549    0.9611   -0.0000 O   0  0  0  0  0  0  0  0  0  0  0  0
  1  2  1  0
  2  3  2  0
  2  4  1  0
  3  5  1  0
  4  6  2  0
  5  7  1  0
  5  8  2  0
  6  9  1  0
  9 10  1  0
 10 11  2  0
 10 12  1  0
 11 13  1  0
 12 14  2  0
 13 15  2  0
 13 16  1  0
 15 17  1  0
 16 18  1  0
 16 19  1  0
 16 20  1  0
 17 21  2  0
 17 22  1  0
 22 23  1  0
 23 24  1  0
 24 25  1  0
 24 26  1  0
 25 27  1  0
 26 28  1  0
 27 29  1  0
  6  8  1  0
 14 15  1  0
 28 29  1  0
M  END
>  <MolRegNo>  (1) 
378620

>  <m>  (1) 
=

>  <Value>  (1) 
27000

>  <Unit>  (1) 
nM

>  <Type>  (1) 
IC50

>  <pValue>  (1) 
4.57

>  <Ligand Efficiency>  (1) 
0

>  <Binding Efficiency>  (1) 
0

>  <Surface Efficiency>  (1) 
0

>  <Assay Index>  (1) 
285319

>  <Assay Category>  (1) 


>  <Assay Organism>  (1) 
Homo sapiens

>  <Target ID>  (1) 
11365

>  <Target Name>  (1) 
Cytochrome P450 2D6

>  <Target Organism>  (1) 
Homo sapiens

>  <Target Description>  (1) 
Target is a single protein chain

>  <Sequence Accession>  (1) 
P10635

>  <Reference>  (1) 
J Med Chem 50 (11), 2597-2600 (2007)

>  <Pubmed ID>  (1) 
17477516

>  <DOI>  (1) 
10.1021/jm061195+

$$$$
