4wnv_ligand_102
     RDKit          2D

 14 15  0  0  0  0  0  0  0  0999 V2000
    0.0000   -0.0000   -0.0000 S   0  0  0  0  0  0  0  0  0  0  0  0
   -0.2168   -1.4695   -0.0000 C   0  0  0  0  0  0  0  0  0  0  0  0
    1.4695    0.2891   -0.0000 C   0  0  0  0  0  0  0  0  0  0  0  0
   -1.5538   -2.1801   -0.0000 C   0  0  0  0  0  0  0  0  0  0  0  0
    1.1443   -2.1079   -0.0000 C   0  0  0  0  0  0  0  0  0  0  0  0
    2.1560   -1.0238   -0.0000 C   0  0  0  0  0  0  0  0  0  0  0  0
    2.1079    1.6863   -0.0000 C   0  0  0  0  0  0  0  0  0  0  0  0
   -1.5658   -3.6014   -0.0000 C   0  0  0  0  0  0  0  0  0  0  0  0
   -2.8908   -1.4454   -0.0000 C   0  0  0  0  0  0  0  0  0  0  0  0
    3.6255    1.8188   -0.0000 N   0  0  0  0  0  0  0  0  0  0  0  0
   -2.9028   -4.3362   -0.0000 N   0  0  0  0  0  0  0  0  0  0  0  0
   -4.2278   -2.1560   -0.0000 C   0  0  0  0  0  0  0  0  0  0  0  0
    4.2759    3.2039   -0.0000 O   0  0  0  0  0  0  0  0  0  0  0  0
   -4.2398   -3.5773   -0.0000 C   0  0  0  0  0  0  0  0  0  0  0  0
  1  2  1  0
  1  3  1  0
  2  4  1  0
  2  5  2  0
  3  6  2  0
  3  7  1  0
  4  8  2  0
  4  9  1  0
  7 10  2  0
  8 11  1  0
  9 12  2  0
 10 13  1  0
 11 14  2  0
  5  6  1  0
 12 14  1  0
M  END
>  <MolRegNo>  (1) 
299452

>  <m>  (1) 
=

>  <Value>  (1) 
191000

>  <Unit>  (1) 
nM

>  <Type>  (1) 
IC50

>  <pValue>  (1) 
0

>  <Ligand Efficiency>  (1) 
0

>  <Binding Efficiency>  (1) 
0

>  <Surface Efficiency>  (1) 
0

>  <Assay Index>  (1) 
238570

>  <Assay Category>  (1) 


>  <Assay Organism>  (1) 
Homo sapiens

>  <Target ID>  (1) 
11365

>  <Target Name>  (1) 
Cytochrome P450 2D6

>  <Target Organism>  (1) 
Homo sapiens

>  <Target Description>  (1) 
Target is a single protein chain

>  <Sequence Accession>  (1) 
P10635

>  <Reference>  (1) 
J Med Chem 48 (1), 224-239 (2005)

>  <Pubmed ID>  (1) 
15634016

>  <DOI>  (1) 
10.1021/jm049696n

$$$$
