4wnv_ligand_61
     RDKit          2D

 13 14  0  0  0  0  0  0  0  0999 V2000
    0.0000   -0.0000   -0.0000 N   0  0  0  0  0  0  0  0  0  0  0  0
   -0.0117   -1.4804   -0.0000 C   0  0  0  0  0  0  0  0  0  0  0  0
   -1.3277   -2.2207   -0.0000 N   0  0  0  0  0  0  0  0  0  0  0  0
    1.2807   -2.2442   -0.0000 N   0  0  0  0  0  0  0  0  0  0  0  0
   -2.6436   -1.4569   -0.0000 C   0  0  0  0  0  0  0  0  0  0  0  0
   -1.3394   -3.6893   -0.0000 C   0  0  0  0  0  0  0  0  0  0  0  0
   -3.9596   -2.1972   -0.0000 C   0  0  0  0  0  0  0  0  0  0  0  0
   -2.6554   -4.4178   -0.0000 C   0  0  0  0  0  0  0  0  0  0  0  0
   -3.9713   -3.6658   -0.0000 C   0  0  0  0  0  0  0  0  0  0  0  0
   -5.2755   -1.4334   -0.0000 C   0  0  0  0  0  0  0  0  0  0  0  0
   -5.2873   -4.3943   -0.0000 C   0  0  0  0  0  0  0  0  0  0  0  0
   -6.5915   -2.1737   -0.0000 C   0  0  0  0  0  0  0  0  0  0  0  0
   -6.6032   -3.6423   -0.0000 C   0  0  0  0  0  0  0  0  0  0  0  0
  1  2  2  0
  2  3  1  0
  2  4  1  0
  3  5  1  0
  3  6  1  0
  5  7  1  0
  6  8  1  0
  7  9  2  0
  7 10  1  0
  9 11  1  0
 10 12  2  0
 11 13  2  0
  8  9  1  0
 12 13  1  0
M  END
>  <MolRegNo>  (1) 
282577

>  <m>  (1) 
=

>  <Value>  (1) 
23800

>  <Unit>  (1) 
nM

>  <Type>  (1) 
IC50

>  <pValue>  (1) 
4.62

>  <Ligand Efficiency>  (1) 
0

>  <Binding Efficiency>  (1) 
0

>  <Surface Efficiency>  (1) 
0

>  <Assay Index>  (1) 
51626

>  <Assay Category>  (1) 


>  <Assay Organism>  (1) 
Homo sapiens

>  <Target ID>  (1) 
11365

>  <Target Name>  (1) 
Cytochrome P450 2D6

>  <Target Organism>  (1) 
Homo sapiens

>  <Target Description>  (1) 
Target is a single protein chain

>  <Sequence Accession>  (1) 
P10635

>  <Reference>  (1) 
J Med Chem 46 (1), 74-86 (2003)

>  <Pubmed ID>  (1) 
12502361

>  <DOI>  (1) 
10.1021/jm0209578

$$$$
