4wnv_ligand_669
     RDKit          2D

 38 43  0  0  1  0  0  0  0  0999 V2000
    0.0000   -0.0000   -0.0000 F   0  0  0  0  0  0  0  0  0  0  0  0
   -0.0126   -1.5003   -0.0000 C   0  0  0  0  0  0  0  0  0  0  0  0
   -1.3364   -2.2441   -0.0000 C   0  0  0  0  0  0  0  0  0  0  0  0
    1.2860   -2.2441   -0.0000 C   0  0  0  0  0  0  0  0  0  0  0  0
   -1.3490   -3.7444   -0.0000 C   0  0  0  0  0  0  0  0  0  0  0  0
    1.2734   -3.7444   -0.0000 C   0  0  0  0  0  0  0  0  0  0  0  0
   -0.0504   -4.4883   -0.0000 C   0  0  0  0  0  0  0  0  0  0  0  0
   -2.6728   -4.4883   -0.0000 C   0  0  0  0  0  0  0  0  0  0  0  0
   -0.0630   -5.9886   -0.0000 C   0  0  0  0  0  0  0  0  0  0  0  0
   -2.6854   -5.9886   -0.0000 C   0  0  0  0  0  0  0  0  0  0  0  0
   -1.3868   -6.7324   -0.0000 C   0  0  0  0  0  0  0  0  0  0  0  0
   -1.3994   -8.2327   -0.0000 C   0  0  0  0  0  0  0  0  0  0  0  0
   -0.1009   -8.9765   -0.0000 N   0  0  0  0  0  0  0  0  0  0  0  0
    0.8321  -10.1364   -0.0000 C   0  0  0  0  0  0  0  0  0  0  0  0
    1.1725   -9.1657   -0.0000 C   0  0  0  0  0  0  0  0  0  0  0  0
    2.3702   -9.2539   -0.0000 C   0  0  0  0  0  0  0  0  0  0  0  0
    0.6304  -11.7250   -0.0000 C   0  0  0  0  0  0  0  0  0  0  0  0
    2.6350   -8.2957   -0.0000 C   0  0  0  0  0  0  0  0  0  0  0  0
    1.2860  -10.5651   -0.0000 C   0  0  0  0  0  0  0  0  0  0  0  0
    3.5679   -9.4682   -0.0000 C   0  0  0  0  0  0  0  0  0  0  0  0
    4.8539  -10.2247   -0.0000 N   0  0  0  0  0  0  0  0  0  0  0  0
    6.1651   -9.4808   -0.0000 C   0  0  0  0  0  0  0  0  0  0  0  0
    6.1777   -7.9553   -0.0000 O   0  0  0  0  0  0  0  0  0  0  0  0
    7.4510  -10.2373   -0.0000 C   0  0  0  0  0  0  0  0  0  0  0  0
    8.7622   -9.4935   -0.0000 C   0  0  0  0  0  0  0  0  0  0  0  0
    7.4132  -11.7376   -0.0000 C   0  0  0  0  0  0  0  0  0  0  0  0
    8.7748   -7.9679   -0.0000 C   0  0  0  0  0  0  0  0  0  0  0  0
   10.0482  -10.2499   -0.0000 C   0  0  0  0  0  0  0  0  0  0  0  0
    8.6992  -12.4940   -0.0000 C   0  0  0  0  0  0  0  0  0  0  0  0
    7.4636   -7.1863   -0.0000 O   0  0  0  0  0  0  0  0  0  0  0  0
   10.0860   -7.2241   -0.0000 N   0  0  0  0  0  0  0  0  0  0  0  0
   10.0104  -11.7502   -0.0000 C   0  0  0  0  0  0  0  0  0  0  0  0
   10.0986   -5.6986   -0.0000 C   0  0  0  0  0  0  0  0  0  0  0  0
   11.3720   -7.9806   -0.0000 C   0  0  0  0  0  0  0  0  0  0  0  0
   11.4098   -4.9547   -0.0000 C   0  0  0  0  0  0  0  0  0  0  0  0
   12.6832   -7.2367   -0.0000 C   0  0  0  0  0  0  0  0  0  0  0  0
   12.6958   -5.7112   -0.0000 N   0  0  0  0  0  0  0  0  0  0  0  0
   14.0069   -4.9674   -0.0000 C   0  0  0  0  0  0  0  0  0  0  0  0
  1  2  1  0
  2  3  2  0
  2  4  1  0
  3  5  1  0
  4  6  2  0
  5  7  2  0
  5  8  1  0
  7  9  1  0
  8 10  2  0
  9 11  2  0
 11 12  1  0
 12 13  1  0
 14 13  1  0
 15 13  1  0
 14 16  1  6
 14 17  1  0
 15 18  1  1
 15 19  1  0
 16 20  1  0
 20 21  1  1
 21 22  1  0
 22 23  2  0
 22 24  1  0
 24 25  1  0
 24 26  2  0
 25 27  1  0
 25 28  2  0
 26 29  1  0
 27 30  2  0
 27 31  1  0
 28 32  1  0
 31 33  1  0
 31 34  1  0
 33 35  1  0
 34 36  1  0
 35 37  1  0
 37 38  1  0
  6  7  1  0
 10 11  1  0
 17 19  1  0
 18 20  1  0
 29 32  2  0
 36 37  1  0
M  END
>  <MolRegNo>  (1) 
1594459

>  <m>  (1) 
=

>  <Value>  (1) 
7100

>  <Unit>  (1) 
nM

>  <Type>  (1) 
IC50

>  <pValue>  (1) 
5.15

>  <Ligand Efficiency>  (1) 
0

>  <Binding Efficiency>  (1) 
0

>  <Surface Efficiency>  (1) 
0

>  <Assay Index>  (1) 
384135

>  <Assay Category>  (1) 


>  <Assay Organism>  (1) 
Homo sapiens

>  <Target ID>  (1) 
11365

>  <Target Name>  (1) 
Cytochrome P450 2D6

>  <Target Organism>  (1) 
Homo sapiens

>  <Target Description>  (1) 
Target is a single protein chain

>  <Sequence Accession>  (1) 
P10635

>  <Reference>  (1) 
Bioorg Med Chem 16 (18), 8607-8618 (2008)

>  <Pubmed ID>  (1) 
18752960

>  <DOI>  (1) 
10.1016/j.bmc.2008.08.006

$$$$
