4wnv_ligand_399
     RDKit          2D

 23 25  0  0  1  0  0  0  0  0999 V2000
    0.0000   -0.0000   -0.0000 F   0  0  0  0  0  0  0  0  0  0  0  0
    1.2876    0.7442   -0.0000 C   0  0  0  0  0  0  0  0  0  0  0  0
    2.0201   -0.5434   -0.0000 F   0  0  0  0  0  0  0  0  0  0  0  0
    0.5316    2.0555   -0.0000 F   0  0  0  0  0  0  0  0  0  0  0  0
    2.5753    1.5003   -0.0000 C   0  0  0  0  0  0  0  0  0  0  0  0
    2.5635    3.0124   -0.0000 C   0  0  0  0  0  0  0  0  0  0  0  0
    3.8629    0.7679   -0.0000 C   0  0  0  0  0  0  0  0  0  0  0  0
    3.8393    3.7684   -0.0000 C   0  0  0  0  0  0  0  0  0  0  0  0
    1.2522    3.7684   -0.0000 C   0  0  0  0  0  0  0  0  0  0  0  0
    5.1505    1.5239   -0.0000 C   0  0  0  0  0  0  0  0  0  0  0  0
    5.1269    3.0360   -0.0000 C   0  0  0  0  0  0  0  0  0  0  0  0
    1.2404    5.2805   -0.0000 N   0  0  0  0  0  0  0  0  0  0  0  0
   -0.0709    6.0365   -0.0000 C   0  0  0  0  0  0  0  0  0  0  0  0
    2.5280    6.0365   -0.0000 C   0  0  0  0  0  0  0  0  0  0  0  0
   -0.0827    7.5486   -0.0000 C   0  0  0  0  0  0  0  0  0  0  0  0
   -1.3703    5.2923   -0.0000 C   0  0  0  0  0  0  0  0  0  0  0  0
    2.6698    7.5368   -0.0000 C   0  0  0  0  0  0  0  0  0  0  0  0
    3.8865    5.4341   -0.0000 C   0  0  0  0  0  0  0  0  0  0  0  0
   -1.3821    8.3047   -0.0000 C   0  0  0  0  0  0  0  0  0  0  0  0
   -2.6816    6.0602   -0.0000 C   0  0  0  0  0  0  0  0  0  0  0  0
    4.1228    7.8558   -0.0000 N   0  0  0  0  0  0  0  0  0  0  0  0
    4.8788    6.5563   -0.0000 C   0  0  0  0  0  0  0  0  0  0  0  0
   -2.6934    7.5722   -0.0000 O   0  0  0  0  0  0  0  0  0  0  0  0
  1  2  1  0
  2  3  1  0
  2  4  1  0
  2  5  1  0
  5  6  2  0
  5  7  1  0
  6  8  1  0
  6  9  1  0
  7 10  2  0
  8 11  2  0
  9 12  1  0
 12 13  1  0
 14 12  1  6
 13 15  1  0
 13 16  1  0
 14 17  1  0
 14 18  1  0
 15 19  1  0
 16 20  1  0
 17 21  1  0
 18 22  1  0
 19 23  1  0
 10 11  1  0
 20 23  1  0
 21 22  1  0
M  END
>  <MolRegNo>  (1) 
412792

>  <m>  (1) 
=

>  <Value>  (1) 
30000

>  <Unit>  (1) 
nM

>  <Type>  (1) 
IC50

>  <pValue>  (1) 
4.52

>  <Ligand Efficiency>  (1) 
0

>  <Binding Efficiency>  (1) 
0

>  <Surface Efficiency>  (1) 
0

>  <Assay Index>  (1) 
303145

>  <Assay Category>  (1) 


>  <Assay Organism>  (1) 
Homo sapiens

>  <Target ID>  (1) 
11365

>  <Target Name>  (1) 
Cytochrome P450 2D6

>  <Target Organism>  (1) 
Homo sapiens

>  <Target Description>  (1) 
Target is a single protein chain

>  <Sequence Accession>  (1) 
P10635

>  <Reference>  (1) 
Bioorg Med Chem Lett 17 (7), 2022-2025 (2007)

>  <Pubmed ID>  (1) 
17267217

>  <DOI>  (1) 
10.1016/j.bmcl.2007.01.020

$$$$
