4wnv_ligand_881
     RDKit          2D

 28 30  0  0  0  0  0  0  0  0999 V2000
    0.0000   -0.0000   -0.0000 O   0  0  0  0  0  0  0  0  0  0  0  0
   -1.3124   -0.7397   -0.0000 C   0  0  0  0  0  0  0  0  0  0  0  0
    1.2886   -0.7397   -0.0000 C   0  0  0  0  0  0  0  0  0  0  0  0
   -2.6249    0.0239   -0.0000 C   0  0  0  0  0  0  0  0  0  0  0  0
   -1.3244   -2.2431   -0.0000 C   0  0  0  0  0  0  0  0  0  0  0  0
    2.5772    0.0239   -0.0000 C   0  0  0  0  0  0  0  0  0  0  0  0
   -2.6368    1.5391   -0.0000 C   0  0  0  0  0  0  0  0  0  0  0  0
   -3.9373   -0.7159   -0.0000 C   0  0  0  0  0  0  0  0  0  0  0  0
   -2.6488   -2.9828   -0.0000 C   0  0  0  0  0  0  0  0  0  0  0  0
    2.5652    1.5391   -0.0000 O   0  0  0  0  0  0  0  0  0  0  0  0
    3.8657   -0.7159   -0.0000 C   0  0  0  0  0  0  0  0  0  0  0  0
   -2.6607    3.0663   -0.0000 N   0  0  0  0  0  0  0  0  0  0  0  0
   -3.9493   -2.2192   -0.0000 C   0  0  0  0  0  0  0  0  0  0  0  0
    5.1543    0.0477   -0.0000 N   0  0  0  0  0  0  0  0  0  0  0  0
    6.4429   -0.6920   -0.0000 C   0  0  0  0  0  0  0  0  0  0  0  0
    7.7315    0.0716   -0.0000 C   0  0  0  0  0  0  0  0  0  0  0  0
    5.6674   -1.9806   -0.0000 C   0  0  0  0  0  0  0  0  0  0  0  0
    7.1707   -1.9806   -0.0000 C   0  0  0  0  0  0  0  0  0  0  0  0
    9.0201   -0.6682   -0.0000 C   0  0  0  0  0  0  0  0  0  0  0  0
   10.2967    0.1074   -0.0000 C   0  0  0  0  0  0  0  0  0  0  0  0
    9.0081   -2.1596   -0.0000 C   0  0  0  0  0  0  0  0  0  0  0  0
   11.5853   -0.6204   -0.0000 C   0  0  0  0  0  0  0  0  0  0  0  0
   10.2967   -2.8993   -0.0000 C   0  0  0  0  0  0  0  0  0  0  0  0
   11.5734   -2.1238   -0.0000 C   0  0  0  0  0  0  0  0  0  0  0  0
   12.8739    0.1551   -0.0000 C   0  0  0  0  0  0  0  0  0  0  0  0
   12.8739   -2.8635   -0.0000 C   0  0  0  0  0  0  0  0  0  0  0  0
   14.1744   -0.5727   -0.0000 C   0  0  0  0  0  0  0  0  0  0  0  0
   14.1625   -2.0880   -0.0000 C   0  0  0  0  0  0  0  0  0  0  0  0
  1  2  1  0
  1  3  1  0
  2  4  2  0
  2  5  1  0
  3  6  1  0
  4  7  1  0
  4  8  1  0
  5  9  2  0
  6 10  1  1
  6 11  1  0
  7 12  3  0
  8 13  2  0
 11 14  1  0
 14 15  1  0
 15 16  1  0
 15 17  1  0
 15 18  1  0
 16 19  1  0
 19 20  2  0
 19 21  1  0
 20 22  1  0
 21 23  2  0
 22 24  2  0
 22 25  1  0
 24 26  1  0
 25 27  2  0
 26 28  2  0
  9 13  1  0
 23 24  1  0
 27 28  1  0
M  END
>  <MolRegNo>  (1) 
333873

>  <m>  (1) 
=

>  <Value>  (1) 
0.1

>  <Unit>  (1) 
nM

>  <Type>  (1) 
IC50

>  <pValue>  (1) 
10

>  <Ligand Efficiency>  (1) 
0

>  <Binding Efficiency>  (1) 
0

>  <Surface Efficiency>  (1) 
0

>  <Assay Index>  (1) 
436972

>  <Assay Category>  (1) 


>  <Assay Organism>  (1) 


>  <Target ID>  (1) 
11365

>  <Target Name>  (1) 
Cytochrome P450 2D6

>  <Target Organism>  (1) 
Homo sapiens

>  <Target Description>  (1) 
Target is a single protein chain

>  <Sequence Accession>  (1) 
P10635

>  <Reference>  (1) 
J Med Chem 52 (21), 6599-6605 (2009)

>  <Pubmed ID>  (1) 
19821575

>  <DOI>  (1) 
10.1021/jm900563e

$$$$
