4wnv_ligand_448
     RDKit          2D

 40 43  0  0  1  0  0  0  0  0999 V2000
    0.0000   -0.0000   -0.0000 S   0  0  0  0  0  0  0  0  0  0  0  0
    1.2040    0.8941   -0.0000 C   0  0  0  0  0  0  0  0  0  0  0  0
    0.4530   -1.4186   -0.0000 C   0  0  0  0  0  0  0  0  0  0  0  0
    2.4081    0.0358   -0.0000 N   0  0  0  0  0  0  0  0  0  0  0  0
    1.1921    2.4081   -0.0000 N   0  0  0  0  0  0  0  0  0  0  0  0
    1.9432   -1.4067   -0.0000 C   0  0  0  0  0  0  0  0  0  0  0  0
   -0.3338   -2.6823   -0.0000 C   0  0  0  0  0  0  0  0  0  0  0  0
   -0.1192    3.1830   -0.0000 C   0  0  0  0  0  0  0  0  0  0  0  0
    2.8134   -2.5988   -0.0000 C   0  0  0  0  0  0  0  0  0  0  0  0
   -1.8359   -2.6465   -0.0000 O   0  0  0  0  0  0  0  0  0  0  0  0
    0.3815   -3.9817   -0.0000 C   0  0  0  0  0  0  0  0  0  0  0  0
   -1.4306    2.4439   -0.0000 O   0  0  0  0  0  0  0  0  0  0  0  0
   -0.1311    4.6970   -0.0000 N   0  0  0  0  0  0  0  0  0  0  0  0
   -1.4425    5.4599   -0.0000 C   0  0  0  0  0  0  0  0  0  0  0  0
   -1.4544    6.9739   -0.0000 C   0  0  0  0  0  0  0  0  0  0  0  0
   -2.7538    4.7327   -0.0000 C   0  0  0  0  0  0  0  0  0  0  0  0
   -2.7657    7.7488   -0.0000 C   0  0  0  0  0  0  0  0  0  0  0  0
   -0.1550    7.7369   -0.0000 C   0  0  0  0  0  0  0  0  0  0  0  0
   -4.0651    5.4838   -0.0000 C   0  0  0  0  0  0  0  0  0  0  0  0
   -4.0771    6.9978   -0.0000 N   0  0  0  0  0  0  0  0  0  0  0  0
    1.1325    6.9859   -0.0000 N   0  0  0  0  0  0  0  0  0  0  0  0
   -5.3884    7.7488   -0.0000 C   0  0  0  0  0  0  0  0  0  0  0  0
    2.4200    7.7488   -0.0000 C   0  0  0  0  0  0  0  0  0  0  0  0
    1.1206    5.4838   -0.0000 C   0  0  0  0  0  0  0  0  0  0  0  0
   -5.4003    9.2628   -0.0000 O   0  0  0  0  0  0  0  0  0  0  0  0
   -6.6878    7.0097   -0.0000 C   0  0  0  0  0  0  0  0  0  0  0  0
    3.7075    6.9978   -0.0000 C   0  0  0  0  0  0  0  0  0  0  0  0
    2.4081    4.7447   -0.0000 C   0  0  0  0  0  0  0  0  0  0  0  0
   -7.9992    7.7607   -0.0000 N   0  0  0  0  0  0  0  0  0  0  0  0
    3.6837    5.5076   -0.0000 C   0  0  0  0  0  0  0  0  0  0  0  0
    5.0069    7.7607   -0.0000 C   0  0  0  0  0  0  0  0  0  0  0  0
   -9.2986    7.0216   -0.0000 C   0  0  0  0  0  0  0  0  0  0  0  0
   -8.0111    9.2747   -0.0000 C   0  0  0  0  0  0  0  0  0  0  0  0
    6.2944    7.0097   -0.0000 C   0  0  0  0  0  0  0  0  0  0  0  0
    6.2587    5.5195   -0.0000 C   0  0  0  0  0  0  0  0  0  0  0  0
    7.5819    7.7727   -0.0000 C   0  0  0  0  0  0  0  0  0  0  0  0
    7.5462    4.7804   -0.0000 C   0  0  0  0  0  0  0  0  0  0  0  0
    8.8694    7.0335   -0.0000 C   0  0  0  0  0  0  0  0  0  0  0  0
    8.8456    5.5315   -0.0000 C   0  0  0  0  0  0  0  0  0  0  0  0
   10.1331    4.7923   -0.0000 F   0  0  0  0  0  0  0  0  0  0  0  0
  1  2  1  0
  1  3  1  0
  2  4  2  0
  2  5  1  0
  3  6  2  0
  3  7  1  0
  5  8  1  0
  6  9  1  0
  7 10  2  0
  7 11  1  0
  8 12  2  0
  8 13  1  0
 14 13  1  6
 14 15  1  0
 14 16  1  0
 15 17  1  0
 15 18  1  1
 16 19  1  0
 17 20  1  0
 18 21  1  0
 20 22  1  0
 21 23  1  0
 21 24  1  0
 22 25  2  0
 22 26  1  0
 23 27  1  0
 24 28  1  0
 26 29  1  0
 27 30  1  0
 27 31  1  6
 29 32  1  0
 29 33  1  0
 31 34  1  0
 34 35  2  0
 34 36  1  0
 35 37  1  0
 36 38  2  0
 37 39  2  0
 39 40  1  0
  4  6  1  0
 19 20  1  0
 28 30  1  0
 38 39  1  0
M  END
>  <MolRegNo>  (1) 
421491

>  <m>  (1) 
=

>  <Value>  (1) 
5100

>  <Unit>  (1) 
nM

>  <Type>  (1) 
IC50

>  <pValue>  (1) 
5.29

>  <Ligand Efficiency>  (1) 
0

>  <Binding Efficiency>  (1) 
0

>  <Surface Efficiency>  (1) 
0

>  <Assay Index>  (1) 
307824

>  <Assay Category>  (1) 


>  <Assay Organism>  (1) 
Homo sapiens

>  <Target ID>  (1) 
11365

>  <Target Name>  (1) 
Cytochrome P450 2D6

>  <Target Organism>  (1) 
Homo sapiens

>  <Target Description>  (1) 
Target is a single protein chain

>  <Sequence Accession>  (1) 
P10635

>  <Reference>  (1) 
Bioorg Med Chem Lett 17 (11), 2992-2997 (2007)

>  <Pubmed ID>  (1) 
17418570

>  <DOI>  (1) 
10.1016/j.bmcl.2007.03.065

$$$$
