
     RDKit          3D

 34 37  0  0  0  0  0  0  0  0999 V2000
  -28.8591  -23.7517  -18.2682 O   0  0  0  0  0  0  0  0  0  0  0  0
  -28.5641  -24.5627  -17.3974 C   0  0  0  0  0  0  0  0  0  0  0  0
  -28.3081  -24.2091  -16.0873 N   0  0  0  0  0  0  0  0  0  0  0  0
  -28.4231  -26.0084  -17.7297 C   0  0  0  0  0  0  0  0  0  0  0  0
  -29.0858  -23.1573  -15.4457 C   0  0  0  0  0  0  0  0  0  0  0  0
  -28.6103  -27.0131  -16.7709 C   0  0  0  0  0  0  0  0  0  0  0  0
  -28.1164  -26.3615  -19.0500 C   0  0  0  0  0  0  0  0  0  0  0  0
  -30.2969  -23.7210  -14.6715 C   0  0  0  0  0  0  0  0  0  0  0  0
  -28.4678  -28.3560  -17.1293 C   0  0  0  0  0  0  0  0  0  0  0  0
  -27.9744  -27.7044  -19.4038 C   0  0  0  0  0  0  0  0  0  0  0  0
  -30.8014  -25.0778  -15.1781 C   0  0  0  0  0  0  0  0  0  0  0  0
  -30.0880  -23.6729  -13.1144 C   0  0  0  0  0  0  0  0  0  0  0  0
  -28.1467  -28.6999  -18.4426 C   0  0  0  0  0  0  0  0  0  0  0  0
  -31.1984  -25.1946  -16.5247 C   0  0  0  0  0  0  0  0  0  0  0  0
  -30.8944  -26.2151  -14.3399 C   0  0  0  0  0  0  0  0  0  0  0  0
  -29.5756  -22.3725  -12.7503 O   0  0  0  0  0  0  0  0  0  0  0  0
  -31.3842  -23.9106  -12.3009 C   0  0  0  0  0  0  0  0  0  0  0  0
  -31.6479  -26.4174  -16.9779 C   0  0  0  0  0  0  0  0  0  0  0  0
  -31.3550  -27.4434  -14.8281 C   0  0  0  0  0  0  0  0  0  0  0  0
  -30.2808  -21.2927  -13.3548 C   0  0  0  0  0  0  0  0  0  0  0  0
  -31.7010  -25.3092  -12.2134 O   0  0  0  0  0  0  0  0  0  0  0  0
  -31.4316  -23.4491  -10.8465 C   0  0  0  0  0  0  0  0  0  0  0  0
  -32.0605  -26.6935  -18.2439 O   0  0  0  0  0  0  0  0  0  0  0  0
  -31.7223  -27.5119  -16.1524 C   0  0  0  0  0  0  0  0  0  0  0  0
  -30.2268  -20.1303  -12.5327 O   0  0  0  0  0  0  0  0  0  0  0  0
  -31.4109  -25.7228  -10.8733 C   0  0  0  0  0  0  0  0  0  0  0  0
  -31.0271  -24.5974  -10.0872 O   0  0  0  0  0  0  0  0  0  0  0  0
  -30.6388  -22.2261  -10.3984 C   0  0  0  0  0  0  0  0  0  0  0  0
  -32.4129  -28.0861  -18.1162 C   0  0  0  0  0  0  0  0  0  0  0  0
  -32.1917  -28.6157  -16.7924 O   0  0  0  0  0  0  0  0  0  0  0  0
  -28.8926  -19.7816  -12.1970 C   0  0  0  0  0  0  0  0  0  0  0  0
  -30.2634  -26.7235  -10.8814 C   0  0  0  0  0  0  0  0  0  0  0  0
  -32.6712  -26.3452  -10.2820 C   0  0  0  0  0  0  0  0  0  0  0  0
  -30.2457  -22.3085   -9.0307 O   0  0  0  0  0  0  0  0  0  0  0  0
  1  2  2  0
  2  3  1  0
  2  4  1  0
  3  5  1  0
  4  6  4  0
  4  7  4  0
  8  5  1  0
  6  9  4  0
  7 10  4  0
  8 11  1  0
  8 12  1  0
  9 13  4  0
 11 14  4  0
 11 15  4  0
 12 16  1  0
 12 17  1  0
 14 18  4  0
 15 19  4  0
 16 20  1  0
 17 21  1  0
 17 22  1  0
 18 23  1  0
 18 24  4  0
 20 25  1  0
 21 26  1  0
 22 27  1  0
 22 28  1  0
 23 29  1  0
 24 30  1  0
 25 31  1  0
 26 32  1  0
 26 33  1  0
 28 34  1  0
 10 13  4  0
 19 24  4  0
 26 27  1  0
 29 30  1  0
M  END
