
     RDKit          3D

 51 56  0  0  0  0  0  0  0  0999 V2000
  -29.1406  -29.8755  -19.1841 Si  0  0  0  0  0  4  0  0  0  0  0  0
  -28.5690  -28.5864  -18.2795 O   0  0  0  0  0  0  0  0  0  0  0  0
  -31.0048  -29.5803  -19.5107 C   0  0  0  0  0  0  0  0  0  0  0  0
  -28.3366  -29.6820  -20.9010 C   0  0  0  0  0  0  0  0  0  0  0  0
  -28.8159  -31.6677  -18.3109 C   0  0  0  0  0  0  0  0  0  0  0  0
  -27.9600  -27.4543  -18.9021 C   0  0  0  0  0  0  0  0  0  0  0  0
  -31.9638  -30.5211  -19.0881 C   0  0  0  0  0  0  0  0  0  0  0  0
  -31.4675  -28.4109  -20.1376 C   0  0  0  0  0  0  0  0  0  0  0  0
  -29.0960  -29.4975  -22.0713 C   0  0  0  0  0  0  0  0  0  0  0  0
  -26.9349  -29.7634  -21.0385 C   0  0  0  0  0  0  0  0  0  0  0  0
  -27.3266  -31.7885  -17.9001 C   0  0  0  0  0  0  0  0  0  0  0  0
  -29.1418  -32.8252  -19.2842 C   0  0  0  0  0  0  0  0  0  0  0  0
  -29.6788  -31.8468  -17.0393 C   0  0  0  0  0  0  0  0  0  0  0  0
  -28.6270  -26.1655  -18.3854 C   0  0  0  0  0  0  0  0  0  0  0  0
  -33.3268  -30.3149  -19.3158 C   0  0  0  0  0  0  0  0  0  0  0  0
  -32.8320  -28.2079  -20.3647 C   0  0  0  0  0  0  0  0  0  0  0  0
  -28.4818  -29.3718  -23.3201 C   0  0  0  0  0  0  0  0  0  0  0  0
  -26.3235  -29.6437  -22.2883 C   0  0  0  0  0  0  0  0  0  0  0  0
  -28.5249  -25.1584  -19.4031 O   0  0  0  0  0  0  0  0  0  0  0  0
  -30.1204  -26.3547  -18.1112 C   0  0  0  0  0  0  0  0  0  0  0  0
  -33.7604  -29.1605  -19.9597 C   0  0  0  0  0  0  0  0  0  0  0  0
  -27.0962  -29.4445  -23.4291 C   0  0  0  0  0  0  0  0  0  0  0  0
  -29.8397  -24.8922  -19.8745 C   0  0  0  0  0  0  0  0  0  0  0  0
  -30.8099  -25.4590  -18.9987 O   0  0  0  0  0  0  0  0  0  0  0  0
  -30.5497  -26.0571  -16.6461 C   0  0  0  0  0  0  0  0  0  0  0  0
  -30.0191  -25.5073  -21.2609 C   0  0  0  0  0  0  0  0  0  0  0  0
  -30.0412  -23.3825  -19.9298 C   0  0  0  0  0  0  0  0  0  0  0  0
  -29.3732  -25.6695  -15.9045 O   0  0  0  0  0  0  0  0  0  0  0  0
  -31.1957  -27.2697  -15.9095 C   0  0  0  0  0  0  0  0  0  0  0  0
  -29.6489  -24.7189  -14.8790 C   0  0  0  0  0  0  0  0  0  0  0  0
  -32.6730  -27.4191  -16.2957 C   0  0  0  0  0  0  0  0  0  0  0  0
  -30.4269  -28.5942  -16.1280 C   0  0  0  0  0  0  0  0  0  0  0  0
  -31.0148  -24.7770  -14.4879 O   0  0  0  0  0  0  0  0  0  0  0  0
  -33.2303  -26.6976  -17.3673 C   0  0  0  0  0  0  0  0  0  0  0  0
  -33.4987  -28.2974  -15.5507 C   0  0  0  0  0  0  0  0  0  0  0  0
  -29.0098  -28.4657  -15.8309 N   0  0  0  0  0  0  0  0  0  0  0  0
  -31.2406  -24.0966  -13.2671 C   0  0  0  0  0  0  0  0  0  0  0  0
  -34.5630  -26.8921  -17.6628 C   0  0  0  0  0  0  0  0  0  0  0  0
  -34.8466  -28.4728  -15.8754 C   0  0  0  0  0  0  0  0  0  0  0  0
  -28.2653  -29.5466  -15.4063 C   0  0  0  0  0  0  0  0  0  0  0  0
  -35.2508  -26.2829  -18.6664 O   0  0  0  0  0  0  0  0  0  0  0  0
  -35.3484  -27.7585  -16.9403 C   0  0  0  0  0  0  0  0  0  0  0  0
  -27.3258  -30.0149  -16.0381 O   0  0  0  0  0  0  0  0  0  0  0  0
  -28.6944  -30.1701  -14.1264 C   0  0  0  0  0  0  0  0  0  0  0  0
  -36.5619  -26.8522  -18.4785 C   0  0  0  0  0  0  0  0  0  0  0  0
  -36.6296  -27.8021  -17.3956 O   0  0  0  0  0  0  0  0  0  0  0  0
  -30.0643  -30.3657  -13.9125 C   0  0  0  0  0  0  0  0  0  0  0  0
  -27.7746  -30.5754  -13.1532 C   0  0  0  0  0  0  0  0  0  0  0  0
  -30.5151  -30.9373  -12.7225 C   0  0  0  0  0  0  0  0  0  0  0  0
  -28.2283  -31.1473  -11.9621 C   0  0  0  0  0  0  0  0  0  0  0  0
  -29.5961  -31.3209  -11.7453 C   0  0  0  0  0  0  0  0  0  0  0  0
  1  2  1  0
  1  3  1  0
  1  4  1  0
  1  5  1  0
  2  6  1  0
  3  7  4  0
  3  8  4  0
  4  9  4  0
  4 10  4  0
  5 11  1  0
  5 12  1  0
  5 13  1  0
 14  6  1  0
  7 15  4  0
  8 16  4  0
  9 17  4  0
 10 18  4  0
 14 19  1  0
 14 20  1  0
 15 21  4  0
 17 22  4  0
 19 23  1  0
 20 24  1  0
 20 25  1  0
 23 26  1  0
 23 27  1  0
 25 28  1  0
 25 29  1  0
 28 30  1  0
 29 31  1  0
 29 32  1  0
 30 33  1  0
 31 34  4  0
 31 35  4  0
 32 36  1  0
 33 37  1  0
 34 38  4  0
 35 39  4  0
 36 40  1  0
 38 41  1  0
 38 42  4  0
 40 43  2  0
 40 44  1  0
 41 45  1  0
 42 46  1  0
 44 47  4  0
 44 48  4  0
 47 49  4  0
 48 50  4  0
 49 51  4  0
 16 21  4  0
 18 22  4  0
 23 24  1  0
 39 42  4  0
 45 46  1  0
 50 51  4  0
M  END
