
     RDKit          3D

 29 32  0  0  0  0  0  0  0  0999 V2000
  -19.8402  -17.2431   -9.9367 Cl  0  0  0  0  0  0  0  0  0  0  0  0
  -19.1910  -17.4202   -8.3529 C   0  0  0  0  0  0  0  0  0  0  0  0
  -18.7770  -18.6747   -7.9108 C   0  0  0  0  0  0  0  0  0  0  0  0
  -19.0814  -16.3077   -7.5216 C   0  0  0  0  0  0  0  0  0  0  0  0
  -18.2508  -18.8183   -6.6252 C   0  0  0  0  0  0  0  0  0  0  0  0
  -18.5542  -16.4508   -6.2363 C   0  0  0  0  0  0  0  0  0  0  0  0
  -18.1387  -17.7081   -5.7761 C   0  0  0  0  0  0  0  0  0  0  0  0
  -17.5534  -17.8607   -4.3918 C   0  0  0  0  0  0  0  0  0  0  0  0
  -18.6122  -17.6457   -3.3071 C   0  0  0  0  0  0  0  0  0  0  0  0
  -19.6696  -16.5923   -3.6773 C   0  0  0  0  0  0  0  0  0  0  0  0
  -20.8447  -16.7757   -2.8643 O   0  0  0  0  0  0  0  0  0  0  0  0
  -19.1640  -15.2728   -3.4269 O   0  0  0  0  0  0  0  0  0  0  0  0
  -20.1161  -16.7471   -5.1541 C   0  0  0  0  0  0  0  0  0  0  0  0
  -21.1973  -15.4885   -2.3271 C   0  0  0  0  0  0  0  0  0  0  0  0
  -20.3081  -14.5052   -3.0613 C   0  0  0  0  0  0  0  0  0  0  0  0
  -21.4135  -16.1907   -5.4692 N   0  0  0  0  0  0  0  0  0  0  0  0
  -20.9595  -15.4312   -0.8121 C   0  0  0  0  0  0  0  0  0  0  0  0
  -21.6671  -14.8889   -5.7956 C   0  0  0  0  0  0  0  0  0  0  0  0
  -22.5920  -16.8766   -5.5592 C   0  0  0  0  0  0  0  0  0  0  0  0
  -20.1849  -16.9549   -0.1498 S   0  0  0  0  0  0  0  0  0  0  0  0
  -22.9392  -14.7022   -6.0650 N   0  0  0  0  0  0  0  0  0  0  0  0
  -23.5250  -15.9326   -5.9189 C   0  0  0  0  0  0  0  0  0  0  0  0
  -18.4624  -16.5409   -0.3349 C   0  0  0  0  0  0  0  0  0  0  0  0
  -17.9211  -16.2276   -1.5829 C   0  0  0  0  0  0  0  0  0  0  0  0
  -17.6257  -16.5689    0.7818 C   0  0  0  0  0  0  0  0  0  0  0  0
  -16.5645  -15.9071   -1.7021 C   0  0  0  0  0  0  0  0  0  0  0  0
  -16.2702  -16.2471    0.6559 C   0  0  0  0  0  0  0  0  0  0  0  0
  -15.7388  -15.8622   -0.5767 C   0  0  0  0  0  0  0  0  0  0  0  0
  -14.3632  -15.6606   -0.7192 N   0  0  0  0  0  0  0  0  0  0  0  0
  1  2  1  0
  2  3  4  0
  2  4  4  0
  3  5  4  0
  4  6  4  0
  5  7  4  0
  7  8  1  0
  8  9  1  0
 10  9  1  0
 10 11  1  0
 10 12  1  0
 10 13  1  0
 11 14  1  0
 12 15  1  0
 13 16  1  0
 14 17  1  0
 16 18  4  0
 16 19  4  0
 17 20  1  0
 18 21  4  0
 19 22  4  0
 20 23  1  0
 23 24  4  0
 23 25  4  0
 24 26  4  0
 25 27  4  0
 26 28  4  0
 28 29  1  0
  6  7  4  0
 14 15  1  0
 21 22  4  0
 27 28  4  0
M  END
