
     RDKit          3D

 29 33  0  0  0  0  0  0  0  0999 V2000
   -4.7157  -32.7354  -18.0814 F   0  0  0  0  0  0  0  0  0  0  0  0
   -3.6760  -32.9666  -18.9647 C   0  0  1  0  0  0  0  0  0  0  0  0
   -2.3604  -32.2655  -18.7380 C   0  0  2  0  0  0  0  0  0  0  0  0
   -2.5194  -33.7403  -18.4344 C   0  0  0  0  0  0  0  0  0  0  0  0
   -2.1863  -31.2348  -17.6894 N   0  0  0  0  0  0  0  0  0  0  0  0
   -3.1300  -30.1741  -17.5099 C   0  0  0  0  0  0  0  0  0  0  0  0
   -1.2093  -31.4496  -16.7357 C   0  0  0  0  0  0  0  0  0  0  0  0
   -4.0832  -29.7771  -18.4850 C   0  0  0  0  0  0  0  0  0  0  0  0
   -3.1099  -29.4563  -16.2983 C   0  0  0  0  0  0  0  0  0  0  0  0
   -1.0763  -30.7942  -15.5738 C   0  0  0  0  0  0  0  0  0  0  0  0
   -3.9834  -30.2856  -19.7670 O   0  0  0  0  0  0  0  0  0  0  0  0
   -5.0939  -28.8199  -18.2121 C   0  0  0  0  0  0  0  0  0  0  0  0
   -2.0553  -29.7232  -15.2829 C   0  0  0  0  0  0  0  0  0  0  0  0
   -4.0513  -28.4567  -16.0339 C   0  0  0  0  0  0  0  0  0  0  0  0
    0.0182  -31.2094  -14.6885 C   0  0  0  0  0  0  0  0  0  0  0  0
   -3.0064  -29.5435  -20.5005 C   0  0  0  0  0  0  0  0  0  0  0  0
   -6.1304  -28.4750  -19.0672 N   0  0  0  0  0  0  0  0  0  0  0  0
   -5.0369  -28.1632  -16.9735 C   0  0  0  0  0  0  0  0  0  0  0  0
   -1.9934  -29.0282  -14.2740 O   0  0  0  0  0  0  0  0  0  0  0  0
    0.2701  -32.3597  -14.3655 O   0  0  0  0  0  0  0  0  0  0  0  0
    0.7232  -30.1881  -14.1827 O   0  0  0  0  0  0  0  0  0  0  0  0
   -6.9459  -29.5657  -19.6195 C   0  0  0  0  0  0  0  0  0  0  0  0
   -6.9236  -27.2551  -18.9294 C   0  0  0  0  0  0  0  0  0  0  0  0
   -8.2598  -28.8887  -20.0462 C   0  0  2  0  0  0  0  0  0  0  0  0
   -8.3672  -27.7323  -19.0502 C   0  0  0  0  0  0  0  0  0  0  0  0
   -9.4282  -29.8654  -20.1236 C   0  0  1  0  0  0  0  0  0  0  0  0
   -9.3580  -30.9647  -19.1407 N   0  0  0  0  0  0  0  0  0  0  0  0
  -10.8123  -29.3780  -20.4972 C   0  0  0  0  0  0  0  0  0  0  0  0
  -10.0279  -30.2071  -21.4725 C   0  0  0  0  0  0  0  0  0  0  0  0
  2  1  1  1
  2  3  1  0
  2  4  1  0
  3  5  1  1
  5  6  4  0
  5  7  4  0
  6  8  4  0
  6  9  4  0
  7 10  4  0
  8 11  1  0
  8 12  4  0
  9 13  4  0
  9 14  4  0
 10 15  1  0
 11 16  1  0
 12 17  1  0
 12 18  4  0
 13 19  2  0
 15 20  2  0
 15 21  1  0
 17 22  1  0
 17 23  1  0
 24 22  1  1
 23 25  1  0
 24 26  1  0
 26 27  1  1
 26 28  1  0
 26 29  1  0
  3  4  1  0
 10 13  4  0
 14 18  4  0
 24 25  1  0
 28 29  1  0
M  END
