
     RDKit          3D

 38 43  0  0  0  0  0  0  0  0999 V2000
  -17.7005  -21.8058   -3.2824 S   0  0  0  0  0  0  0  0  0  0  0  0
  -18.7366  -20.6241   -3.9954 C   0  0  0  0  0  0  0  0  0  0  0  0
  -18.6949  -23.1123   -3.7607 C   0  0  0  0  0  0  0  0  0  0  0  0
  -18.6654  -19.2164   -3.9952 C   0  0  0  0  0  0  0  0  0  0  0  0
  -19.7984  -21.2500   -4.6402 C   0  0  0  0  0  0  0  0  0  0  0  0
  -19.7336  -22.6702   -4.5537 C   0  0  0  0  0  0  0  0  0  0  0  0
  -18.3766  -24.5257   -3.3574 C   0  0  0  0  0  0  0  0  0  0  0  0
  -19.7039  -18.5583   -4.5690 N   0  0  0  0  0  0  0  0  0  0  0  0
  -17.6394  -18.4724   -3.4117 N   0  0  0  0  0  0  0  0  0  0  0  0
  -20.7870  -20.5753   -5.2694 N   0  0  0  0  0  0  0  0  0  0  0  0
  -17.3209  -25.2126   -4.1154 N   0  0  0  0  0  0  0  0  0  0  0  0
  -20.6928  -19.2456   -5.1656 C   0  0  0  0  0  0  0  0  0  0  0  0
  -16.2982  -19.0871   -3.3828 C   0  0  0  0  0  0  0  0  0  0  0  0
  -17.6510  -17.0310   -3.7059 C   0  0  0  0  0  0  0  0  0  0  0  0
  -16.5198  -24.3213   -4.9750 C   0  0  0  0  0  0  0  0  0  0  0  0
  -16.4851  -26.1322   -3.3349 C   0  0  0  0  0  0  0  0  0  0  0  0
  -21.7505  -18.4628   -5.7780 C   0  0  0  0  0  0  0  0  0  0  0  0
  -15.2689  -18.1952   -4.0996 C   0  0  0  0  0  0  0  0  0  0  0  0
  -16.4250  -16.3734   -3.0570 C   0  0  0  0  0  0  0  0  0  0  0  0
  -15.0003  -24.2667   -4.6756 C   0  0  0  0  0  0  0  0  0  0  0  0
  -15.2204  -25.5344   -2.6490 C   0  0  0  0  0  0  0  0  0  0  0  0
  -21.5150  -17.6288   -6.8816 C   0  0  0  0  0  0  0  0  0  0  0  0
  -23.0718  -18.5311   -5.2677 C   0  0  0  0  0  0  0  0  0  0  0  0
  -15.1740  -16.8681   -3.5645 O   0  0  0  0  0  0  0  0  0  0  0  0
  -14.7552  -24.2652   -3.2287 N   0  0  0  0  0  0  0  0  0  0  0  0
  -20.2760  -17.5189   -7.3903 F   0  0  0  0  0  0  0  0  0  0  0  0
  -22.5301  -16.8811   -7.4719 C   0  0  0  0  0  0  0  0  0  0  0  0
  -24.0758  -17.7740   -5.8815 C   0  0  0  0  0  0  0  0  0  0  0  0
  -23.6967  -19.2462   -4.1992 C   0  0  0  0  0  0  0  0  0  0  0  0
  -13.4211  -23.7728   -2.7912 C   0  0  0  0  0  0  0  0  0  0  0  0
  -23.8361  -16.9408   -6.9822 C   0  0  0  0  0  0  0  0  0  0  0  0
  -25.2504  -18.0260   -5.2044 N   0  0  0  0  0  0  0  0  0  0  0  0
  -25.0323  -18.9177   -4.1887 C   0  0  0  0  0  0  0  0  0  0  0  0
  -13.2802  -22.2465   -3.1595 C   0  0  0  0  0  0  0  0  0  0  0  0
  -12.2696  -24.5615   -3.4477 C   0  0  0  0  0  0  0  0  0  0  0  0
  -13.2826  -23.8632   -1.2535 C   0  0  0  0  0  0  0  0  0  0  0  0
  -12.2805  -21.7120   -3.6381 O   0  0  0  0  0  0  0  0  0  0  0  0
  -14.3704  -21.4491   -2.9216 N   0  0  0  0  0  0  0  0  0  0  0  0
  1  2  4  0
  1  3  4  0
  2  4  4  0
  2  5  4  0
  3  6  4  0
  3  7  1  0
  4  8  4  0
  4  9  1  0
  5 10  4  0
  7 11  1  0
  8 12  4  0
  9 13  1  0
  9 14  1  0
 11 15  1  0
 11 16  1  0
 12 17  1  0
 13 18  1  0
 14 19  1  0
 15 20  1  0
 16 21  1  0
 17 22  4  0
 17 23  4  0
 18 24  1  0
 20 25  1  0
 22 26  1  0
 22 27  4  0
 23 28  4  0
 23 29  4  0
 25 30  1  0
 27 31  4  0
 28 32  4  0
 29 33  4  0
 30 34  1  0
 30 35  1  0
 30 36  1  0
 34 37  2  0
 34 38  1  0
  5  6  4  0
 10 12  4  0
 19 24  1  0
 21 25  1  0
 28 31  4  0
 32 33  4  0
M  END
