
     RDKit          3D

 38 42  0  0  0  0  0  0  0  0999 V2000
  -10.3802  -11.8996  -32.0635 S   0  0  0  0  0  0  0  0  0  0  0  0
  -11.5987  -12.4219  -33.2192 C   0  0  0  0  0  0  0  0  0  0  0  0
  -10.8782  -13.2242  -30.8998 C   0  0  0  0  0  0  0  0  0  0  0  0
  -12.4334  -13.4164  -32.6928 C   0  0  0  0  0  0  0  0  0  0  0  0
  -11.7394  -11.9428  -34.5163 C   0  0  0  0  0  0  0  0  0  0  0  0
  -12.1785  -13.8147  -31.3452 N   0  0  0  0  0  0  0  0  0  0  0  0
   -9.7683  -14.2599  -30.7761 C   0  0  0  0  0  0  0  0  0  0  0  0
  -13.4055  -13.9684  -33.5293 C   0  0  0  0  0  0  0  0  0  0  0  0
  -12.7338  -12.4833  -35.3279 C   0  0  0  0  0  0  0  0  0  0  0  0
  -13.0939  -14.4126  -30.4657 C   0  0  0  0  0  0  0  0  0  0  0  0
   -9.7828  -15.2025  -29.7381 C   0  0  0  0  0  0  0  0  0  0  0  0
   -8.6764  -14.2844  -31.6686 C   0  0  0  0  0  0  0  0  0  0  0  0
  -13.5586  -13.4990  -34.8393 C   0  0  0  0  0  0  0  0  0  0  0  0
  -12.9011  -14.5897  -29.1469 C   0  0  0  0  0  0  0  0  0  0  0  0
  -14.3900  -14.9285  -31.0546 C   0  0  0  0  0  0  0  0  0  0  0  0
  -10.8025  -15.1798  -28.8227 O   0  0  0  0  0  0  0  0  0  0  0  0
   -8.7316  -16.1094  -29.5784 C   0  0  0  0  0  0  0  0  0  0  0  0
   -7.6349  -15.2089  -31.5333 C   0  0  0  0  0  0  0  0  0  0  0  0
  -10.4370  -14.4960  -27.6125 C   0  0  0  0  0  0  0  0  0  0  0  0
   -7.6645  -16.1187  -30.4802 C   0  0  0  0  0  0  0  0  0  0  0  0
   -6.6515  -15.1076  -32.4796 O   0  0  0  0  0  0  0  0  0  0  0  0
  -11.6986  -14.1553  -26.8308 C   0  0  0  0  0  0  0  0  0  0  0  0
   -6.9194  -15.6883  -33.7499 C   0  0  0  0  0  0  0  0  0  0  0  0
  -11.8525  -14.8952  -25.4933 C   0  0  0  0  0  0  0  0  0  0  0  0
  -10.8481  -15.8915  -25.0930 N   0  0  0  0  0  0  0  0  0  0  0  0
  -10.5859  -16.9026  -26.1261 C   0  0  0  0  0  0  0  0  0  0  0  0
   -9.6441  -15.2989  -24.5211 C   0  0  0  0  0  0  0  0  0  0  0  0
   -9.6278  -16.4519  -27.2438 C   0  0  0  0  0  0  0  0  0  0  0  0
  -10.2864  -15.5626  -28.1524 O   0  0  0  0  0  0  0  0  0  0  0  0
  -10.6641  -14.3259  -27.7063 C   0  0  0  0  0  0  0  0  0  0  0  0
  -10.3808  -13.7785  -26.4528 C   0  0  0  0  0  0  0  0  0  0  0  0
  -11.4208  -13.5858  -28.6392 C   0  0  0  0  0  0  0  0  0  0  0  0
  -10.8739  -12.5183  -26.1752 C   0  0  0  0  0  0  0  0  0  0  0  0
  -11.8983  -12.3067  -28.3357 C   0  0  0  0  0  0  0  0  0  0  0  0
  -10.7161  -11.8490  -25.0002 O   0  0  0  0  0  0  0  0  0  0  0  0
  -11.6088  -11.8016  -27.0900 C   0  0  0  0  0  0  0  0  0  0  0  0
  -11.4366  -10.6299  -25.2828 C   0  0  0  0  0  0  0  0  0  0  0  0
  -11.9956  -10.5894  -26.6132 O   0  0  0  0  0  0  0  0  0  0  0  0
  1  2  1  0
  1  3  1  0
  2  4  4  0
  2  5  4  0
  3  6  1  0
  3  7  1  0
  4  8  4  0
  5  9  4  0
  6 10  1  0
  7 11  4  0
  7 12  4  0
  8 13  4  0
 10 14  2  0
 10 15  1  0
 11 16  1  0
 11 17  4  0
 12 18  4  0
 16 19  1  0
 17 20  4  0
 18 21  1  0
 19 22  1  0
 21 23  1  0
 22 24  1  0
 24 25  1  0
 25 26  1  0
 25 27  1  0
 26 28  1  0
 28 29  1  0
 29 30  1  0
 30 31  4  0
 30 32  4  0
 31 33  4  0
 32 34  4  0
 33 35  1  0
 33 36  4  0
 35 37  1  0
 36 38  1  0
  4  6  1  0
  9 13  4  0
 18 20  4  0
 34 36  4  0
 37 38  1  0
M  END
