
     RDKit          3D

 24 27  0  0  0  0  0  0  0  0999 V2000
  -22.5133  -22.8112  -15.4396 O   0  0  0  0  0  0  0  0  0  0  0  0
  -22.2946  -21.5498  -14.9607 C   0  0  0  0  0  0  0  0  0  0  0  0
  -23.8422  -23.3663  -15.3763 C   0  0  0  0  0  0  0  0  0  0  0  0
  -23.2916  -20.7207  -14.4384 C   0  0  0  0  0  0  0  0  0  0  0  0
  -20.9726  -21.1086  -15.0257 C   0  0  0  0  0  0  0  0  0  0  0  0
  -24.9119  -22.4501  -14.8333 C   0  0  0  0  0  0  0  0  0  0  0  0
  -23.7496  -24.6165  -14.4936 C   0  0  0  0  0  0  0  0  0  0  0  0
  -24.2055  -23.7724  -16.8095 C   0  0  0  0  0  0  0  0  0  0  0  0
  -22.9438  -19.4387  -13.9699 C   0  0  0  0  0  0  0  0  0  0  0  0
  -24.6639  -21.2136  -14.3939 C   0  0  0  0  0  0  0  0  0  0  0  0
  -20.6347  -19.8336  -14.5769 C   0  0  0  0  0  0  0  0  0  0  0  0
  -23.9541  -18.6490  -13.4776 O   0  0  0  0  0  0  0  0  0  0  0  0
  -21.6194  -18.9835  -14.0577 C   0  0  0  0  0  0  0  0  0  0  0  0
  -23.5281  -17.5627  -12.6486 C   0  0  0  0  0  0  0  0  0  0  0  0
  -21.2299  -17.6051  -13.5950 C   0  0  0  0  0  0  0  0  0  0  0  0
  -22.4364  -16.7069  -13.2943 C   0  0  0  0  0  0  0  0  0  0  0  0
  -22.9843  -15.8895  -14.4625 C   0  0  0  0  0  0  0  0  0  0  0  0
  -22.1123  -15.0960  -15.2281 C   0  0  0  0  0  0  0  0  0  0  0  0
  -24.3485  -15.8671  -14.7983 C   0  0  0  0  0  0  0  0  0  0  0  0
  -20.7812  -15.0810  -14.9070 O   0  0  0  0  0  0  0  0  0  0  0  0
  -22.5706  -14.3253  -16.2966 C   0  0  0  0  0  0  0  0  0  0  0  0
  -24.8177  -15.0952  -15.8663 C   0  0  0  0  0  0  0  0  0  0  0  0
  -23.9231  -14.3333  -16.6068 C   0  0  0  0  0  0  0  0  0  0  0  0
  -24.3399  -13.5666  -17.6548 O   0  0  0  0  0  0  0  0  0  0  0  0
  1  2  1  0
  1  3  1  0
  2  4  4  0
  2  5  4  0
  3  6  1  0
  3  7  1  0
  3  8  1  0
  4  9  4  0
  4 10  1  0
  5 11  4  0
  9 12  1  0
  9 13  4  0
 12 14  1  0
 13 15  1  0
 14 16  1  0
 16 17  1  0
 17 18  4  0
 17 19  4  0
 18 20  1  0
 18 21  4  0
 19 22  4  0
 21 23  4  0
 23 24  1  0
  6 10  2  0
 11 13  4  0
 15 16  1  0
 22 23  4  0
M  END
