
     RDKit          3D

 16 17  0  0  0  0  0  0  0  0999 V2000
  -19.8613  -12.4106  -12.6994 S   0  0  0  0  0  0  0  0  0  0  0  0
  -20.8221  -12.6807  -14.1478 C   0  0  0  0  0  0  0  0  0  0  0  0
  -18.4420  -13.4473  -13.1554 C   0  0  0  0  0  0  0  0  0  0  0  0
  -22.0457  -12.7016  -14.1123 O   0  0  0  0  0  0  0  0  0  0  0  0
  -20.0207  -12.8442  -15.4059 C   0  0  0  0  0  0  0  0  0  0  0  0
  -18.8923  -14.7428  -13.7236 C   0  0  0  0  0  0  0  0  0  0  0  0
  -20.1852  -15.0960  -13.4782 O   0  0  0  0  0  0  0  0  0  0  0  0
  -18.2795  -15.7146  -14.4845 C   0  0  0  0  0  0  0  0  0  0  0  0
  -20.4155  -16.2959  -14.0891 C   0  0  0  0  0  0  0  0  0  0  0  0
  -19.2588  -16.7125  -14.7198 C   0  0  0  0  0  0  0  0  0  0  0  0
  -21.7620  -16.8351  -13.9510 C   0  0  0  0  0  0  0  0  0  0  0  0
  -22.4775  -17.2969  -15.0536 C   0  0  0  0  0  0  0  0  0  0  0  0
  -22.4075  -16.9149  -12.7117 C   0  0  0  0  0  0  0  0  0  0  0  0
  -23.7344  -17.8069  -15.0036 N   0  0  0  0  0  0  0  0  0  0  0  0
  -23.6983  -17.4351  -12.6240 C   0  0  0  0  0  0  0  0  0  0  0  0
  -24.3142  -17.8641  -13.7867 C   0  0  0  0  0  0  0  0  0  0  0  0
  1  2  1  0
  1  3  1  0
  2  4  2  0
  2  5  1  0
  3  6  1  0
  6  7  4  0
  6  8  4  0
  7  9  4  0
  8 10  4  0
  9 11  1  0
 11 12  4  0
 11 13  4  0
 12 14  4  0
 13 15  4  0
 14 16  4  0
  9 10  4  0
 15 16  4  0
M  END
