
     RDKit          3D

 27 30  0  0  0  0  0  0  0  0999 V2000
  -19.3154  -15.9602  -15.1257 O   0  0  0  0  0  0  0  0  0  0  0  0
  -20.1050  -16.1280  -14.2048 C   0  0  0  0  0  0  0  0  0  0  0  0
  -20.0601  -15.5545  -12.9481 N   0  0  0  0  0  0  0  0  0  0  0  0
  -21.3038  -16.9812  -14.4419 C   0  0  0  0  0  0  0  0  0  0  0  0
  -21.0256  -15.6478  -11.9264 C   0  0  0  0  0  0  0  0  0  0  0  0
  -21.2414  -18.3883  -14.5385 C   0  0  0  0  0  0  0  0  0  0  0  0
  -22.5239  -16.3146  -14.5573 C   0  0  0  0  0  0  0  0  0  0  0  0
  -21.2656  -14.6521  -10.9805 C   0  0  0  0  0  0  0  0  0  0  0  0
  -21.7757  -16.8290  -11.8700 C   0  0  0  0  0  0  0  0  0  0  0  0
  -22.4808  -19.0609  -14.6377 C   0  0  0  0  0  0  0  0  0  0  0  0
  -20.0447  -19.1508  -14.5636 C   0  0  0  0  0  0  0  0  0  0  0  0
  -23.6810  -17.0700  -14.6584 C   0  0  0  0  0  0  0  0  0  0  0  0
  -22.2592  -14.8216  -10.0047 C   0  0  0  0  0  0  0  0  0  0  0  0
  -22.7561  -16.9997  -10.8892 C   0  0  0  0  0  0  0  0  0  0  0  0
  -23.6632  -18.4243  -14.6499 N   0  0  0  0  0  0  0  0  0  0  0  0
  -22.4882  -20.4511  -14.7392 C   0  0  0  0  0  0  0  0  0  0  0  0
  -20.0817  -20.5350  -14.6869 C   0  0  0  0  0  0  0  0  0  0  0  0
  -25.0042  -16.4461  -14.7309 C   0  0  0  0  0  0  0  0  0  0  0  0
  -23.0105  -15.9946   -9.9537 C   0  0  0  0  0  0  0  0  0  0  0  0
  -21.3084  -21.1857  -14.7696 C   0  0  0  0  0  0  0  0  0  0  0  0
  -25.0327  -15.1002  -14.5302 N   0  0  0  0  0  0  0  0  0  0  0  0
  -26.1427  -17.1868  -14.9926 C   0  0  0  0  0  0  0  0  0  0  0  0
  -23.9946  -16.2811   -9.0522 O   0  0  0  0  0  0  0  0  0  0  0  0
  -26.2494  -14.5334  -14.5983 C   0  0  0  0  0  0  0  0  0  0  0  0
  -27.3347  -16.5025  -15.0081 C   0  0  0  0  0  0  0  0  0  0  0  0
  -24.1895  -15.3437   -7.9921 C   0  0  0  0  0  0  0  0  0  0  0  0
  -27.4205  -15.1778  -14.8281 N   0  0  0  0  0  0  0  0  0  0  0  0
  1  2  2  0
  2  3  1  0
  2  4  1  0
  3  5  1  0
  4  6  4  0
  4  7  4  0
  5  8  4  0
  5  9  4  0
  6 10  4  0
  6 11  4  0
  7 12  4  0
  8 13  4  0
  9 14  4  0
 10 15  4  0
 10 16  4  0
 11 17  4  0
 12 18  1  0
 13 19  4  0
 16 20  4  0
 18 21  4  0
 18 22  4  0
 19 23  1  0
 21 24  4  0
 22 25  4  0
 23 26  1  0
 24 27  4  0
 12 15  4  0
 14 19  4  0
 17 20  4  0
 25 27  4  0
M  END
