
     RDKit          3D

 40 44  0  0  0  0  0  0  0  0999 V2000
  -29.7992  -25.5717   -8.8950 Cl  0  0  0  0  0  0  0  0  0  0  0  0
  -28.5142  -24.5792   -8.3138 C   0  0  0  0  0  0  0  0  0  0  0  0
  -27.7258  -24.9700   -7.2288 C   0  0  0  0  0  0  0  0  0  0  0  0
  -28.2562  -23.3654   -8.9587 C   0  0  0  0  0  0  0  0  0  0  0  0
  -27.9113  -26.1737   -6.6053 O   0  0  0  0  0  0  0  0  0  0  0  0
  -26.6603  -24.1741   -6.8093 C   0  0  0  0  0  0  0  0  0  0  0  0
  -27.2281  -22.5274   -8.5041 C   0  0  0  0  0  0  0  0  0  0  0  0
  -26.9894  -27.1542   -7.1083 C   0  0  0  0  0  0  0  0  0  0  0  0
  -26.4188  -22.9523   -7.4398 C   0  0  0  0  0  0  0  0  0  0  0  0
  -26.9081  -21.3190   -9.1727 N   0  0  0  0  0  0  0  0  0  0  0  0
  -27.7490  -28.1005   -8.0055 C   0  0  0  0  0  0  0  0  0  0  0  0
  -27.2381  -21.0983  -10.5448 C   0  0  0  0  0  0  0  0  0  0  0  0
  -28.4359  -29.1972   -7.4777 C   0  0  0  0  0  0  0  0  0  0  0  0
  -27.7632  -27.8909   -9.3938 C   0  0  0  0  0  0  0  0  0  0  0  0
  -28.1218  -21.9352  -11.1253 N   0  0  0  0  0  0  0  0  0  0  0  0
  -26.6270  -20.0453  -11.2587 C   0  0  0  0  0  0  0  0  0  0  0  0
  -29.1385  -30.0479   -8.3243 C   0  0  0  0  0  0  0  0  0  0  0  0
  -28.4662  -28.7561  -10.2380 C   0  0  0  0  0  0  0  0  0  0  0  0
  -28.3722  -21.7459  -12.4235 C   0  0  0  0  0  0  0  0  0  0  0  0
  -26.9556  -19.9828  -12.6202 C   0  0  0  0  0  0  0  0  0  0  0  0
  -25.7010  -19.0997  -10.7360 C   0  0  0  0  0  0  0  0  0  0  0  0
  -29.7790  -31.1066   -7.8140 F   0  0  0  0  0  0  0  0  0  0  0  0
  -29.1606  -29.8381   -9.6985 C   0  0  0  0  0  0  0  0  0  0  0  0
  -27.8209  -20.8154  -13.2018 N   0  0  0  0  0  0  0  0  0  0  0  0
  -26.3379  -19.0250  -13.4151 C   0  0  0  0  0  0  0  0  0  0  0  0
  -25.0635  -18.1582  -11.5489 C   0  0  0  0  0  0  0  0  0  0  0  0
  -25.3922  -18.1281  -12.9037 C   0  0  0  0  0  0  0  0  0  0  0  0
  -24.0803  -17.2376  -10.9979 C   0  0  0  0  0  0  0  0  0  0  0  0
  -23.2716  -16.6084  -11.9035 O   0  0  0  0  0  0  0  0  0  0  0  0
  -23.7485  -16.8344   -9.7199 C   0  0  0  0  0  0  0  0  0  0  0  0
  -22.3725  -15.8601  -11.1936 C   0  0  0  0  0  0  0  0  0  0  0  0
  -22.6668  -15.9251   -9.8489 C   0  0  0  0  0  0  0  0  0  0  0  0
  -21.3109  -15.1792  -11.9816 C   0  0  0  0  0  0  0  0  0  0  0  0
  -20.4113  -16.1044  -12.6743 N   0  0  0  0  0  0  0  0  0  0  0  0
  -20.1248  -15.7639  -14.0685 C   0  0  0  0  0  0  0  0  0  0  0  0
  -21.1676  -14.8657  -14.7258 C   0  0  0  0  0  0  0  0  0  0  0  0
  -20.7451  -13.1378  -14.5350 S   0  0  2  0  0  6  0  0  0  0  0  0
  -21.8980  -12.4617  -13.9732 O   0  0  0  0  0  0  0  0  0  0  0  0
  -20.1352  -12.6744  -15.7676 O   0  0  0  0  0  0  0  0  0  0  0  0
  -19.4849  -13.1174  -13.2816 C   0  0  0  0  0  0  0  0  0  0  0  0
  1  2  1  0
  2  3  4  0
  2  4  4  0
  3  5  1  0
  3  6  4  0
  4  7  4  0
  5  8  1  0
  6  9  4  0
  7 10  1  0
  8 11  1  0
 10 12  1  0
 11 13  4  0
 11 14  4  0
 12 15  4  0
 12 16  4  0
 13 17  4  0
 14 18  4  0
 15 19  4  0
 16 20  4  0
 16 21  4  0
 17 22  1  0
 17 23  4  0
 19 24  4  0
 20 25  4  0
 21 26  4  0
 25 27  4  0
 26 28  1  0
 28 29  4  0
 28 30  4  0
 29 31  4  0
 30 32  4  0
 31 33  1  0
 33 34  1  0
 34 35  1  0
 35 36  1  0
 36 37  1  0
 37 38  2  0
 37 39  2  0
 37 40  1  0
  7  9  4  0
 18 23  4  0
 20 24  4  0
 26 27  4  0
 31 32  4  0
M  END
