
     RDKit          3D

 30 33  0  0  0  0  0  0  0  0999 V2000
  -14.9334  -28.5370  -20.0779 F   0  0  0  0  0  0  0  0  0  0  0  0
  -13.6494  -28.1645  -19.9763 C   0  0  0  0  0  0  0  0  0  0  0  0
  -12.7818  -28.9053  -19.1839 C   0  0  0  0  0  0  0  0  0  0  0  0
  -13.2051  -27.0400  -20.6622 C   0  0  0  0  0  0  0  0  0  0  0  0
  -11.4443  -28.5130  -19.0757 C   0  0  0  0  0  0  0  0  0  0  0  0
  -11.8668  -26.6487  -20.5538 C   0  0  0  0  0  0  0  0  0  0  0  0
  -10.9695  -27.3798  -19.7589 C   0  0  0  0  0  0  0  0  0  0  0  0
   -9.5974  -27.0287  -19.6017 N   0  0  0  0  0  0  0  0  0  0  0  0
   -9.1604  -26.0512  -18.7603 C   0  0  0  0  0  0  0  0  0  0  0  0
   -8.9139  -26.2684  -17.4290 N   0  0  0  0  0  0  0  0  0  0  0  0
   -8.9182  -24.6952  -18.9267 C   0  0  0  0  0  0  0  0  0  0  0  0
   -8.4420  -25.1055  -16.8679 C   0  0  0  0  0  0  0  0  0  0  0  0
   -9.2043  -27.4402  -16.6358 C   0  0  0  0  0  0  0  0  0  0  0  0
   -8.4160  -24.1388  -17.7728 N   0  0  0  0  0  0  0  0  0  0  0  0
   -9.0948  -23.9338  -20.1459 C   0  0  0  0  0  0  0  0  0  0  0  0
   -8.0203  -25.0109  -15.4005 C   0  0  0  0  0  0  0  0  0  0  0  0
   -9.6213  -26.9958  -15.2425 C   0  0  0  0  0  0  0  0  0  0  0  0
   -9.5188  -24.5847  -21.3115 C   0  0  0  0  0  0  0  0  0  0  0  0
   -8.8162  -22.5589  -20.1843 C   0  0  0  0  0  0  0  0  0  0  0  0
   -8.5959  -26.1551  -14.6008 N   0  0  0  0  0  0  0  0  0  0  0  0
   -6.4783  -25.0430  -15.3888 C   0  0  0  0  0  0  0  0  0  0  0  0
   -8.5349  -23.6641  -14.8539 C   0  0  0  0  0  0  0  0  0  0  0  0
   -9.6905  -23.8651  -22.4951 C   0  0  0  0  0  0  0  0  0  0  0  0
   -8.9842  -21.8417  -21.3704 C   0  0  0  0  0  0  0  0  0  0  0  0
   -8.3363  -26.2281  -13.2281 C   0  0  0  0  0  0  0  0  0  0  0  0
   -9.4238  -22.5010  -22.5126 C   0  0  0  0  0  0  0  0  0  0  0  0
   -8.3378  -25.2387  -12.4940 O   0  0  0  0  0  0  0  0  0  0  0  0
   -8.0568  -27.6146  -12.6226 C   0  0  0  0  0  0  0  0  0  0  0  0
   -9.5857  -21.8108  -23.6483 F   0  0  0  0  0  0  0  0  0  0  0  0
   -8.6983  -27.7429  -11.2999 N   0  0  0  0  0  0  0  0  0  0  0  0
  1  2  1  0
  2  3  4  0
  2  4  4  0
  3  5  4  0
  4  6  4  0
  5  7  4  0
  7  8  1  0
  8  9  1  0
  9 10  4  0
  9 11  4  0
 10 12  4  0
 10 13  1  0
 11 14  4  0
 11 15  1  0
 12 16  1  0
 13 17  1  0
 15 18  4  0
 15 19  4  0
 16 20  1  0
 16 21  1  0
 16 22  1  0
 18 23  4  0
 19 24  4  0
 20 25  1  0
 23 26  4  0
 25 27  2  0
 25 28  1  0
 26 29  1  0
 28 30  1  0
  6  7  4  0
 12 14  4  0
 17 20  1  0
 24 26  4  0
M  END
