
     RDKit          3D

 25 28  0  0  0  0  0  0  0  0999 V2000
  -20.4115  -23.4997  -11.1658 O   0  0  0  0  0  0  0  0  0  0  0  0
  -20.8510  -22.7603  -12.0342 C   0  0  0  0  0  0  0  0  0  0  0  0
  -22.1601  -22.6097  -12.4483 N   0  0  0  0  0  0  0  0  0  0  0  0
  -19.9011  -21.8934  -12.7660 C   0  0  0  0  0  0  0  0  0  0  0  0
  -22.6352  -22.5572  -13.7751 C   0  0  0  0  0  0  0  0  0  0  0  0
  -19.3553  -20.7409  -12.1681 C   0  0  0  0  0  0  0  0  0  0  0  0
  -19.5681  -22.2658  -14.0698 C   0  0  0  0  0  0  0  0  0  0  0  0
  -22.0605  -21.6014  -14.6235 C   0  0  0  0  0  0  0  0  0  0  0  0
  -23.6277  -23.3979  -14.2815 C   0  0  0  0  0  0  0  0  0  0  0  0
  -18.4870  -19.9855  -12.9740 C   0  0  0  0  0  0  0  0  0  0  0  0
  -19.6326  -20.3030  -10.8488 C   0  0  0  0  0  0  0  0  0  0  0  0
  -18.6914  -21.4635  -14.7793 C   0  0  0  0  0  0  0  0  0  0  0  0
  -22.4738  -21.4877  -15.9536 C   0  0  0  0  0  0  0  0  0  0  0  0
  -24.0411  -23.2840  -15.6129 C   0  0  0  0  0  0  0  0  0  0  0  0
  -18.1791  -20.3308  -14.2374 N   0  0  0  0  0  0  0  0  0  0  0  0
  -17.9266  -18.8289  -12.4478 C   0  0  0  0  0  0  0  0  0  0  0  0
  -19.0562  -19.1394  -10.3443 C   0  0  0  0  0  0  0  0  0  0  0  0
  -18.2654  -21.7573  -16.1625 C   0  0  0  0  0  0  0  0  0  0  0  0
  -23.4653  -22.3300  -16.4483 C   0  0  0  0  0  0  0  0  0  0  0  0
  -18.2004  -18.3991  -11.1470 C   0  0  0  0  0  0  0  0  0  0  0  0
  -18.7864  -22.8627  -16.8515 C   0  0  0  0  0  0  0  0  0  0  0  0
  -17.3438  -20.9560  -16.8519 C   0  0  0  0  0  0  0  0  0  0  0  0
  -18.3657  -23.1225  -18.1463 C   0  0  0  0  0  0  0  0  0  0  0  0
  -16.9836  -21.2947  -18.1487 C   0  0  0  0  0  0  0  0  0  0  0  0
  -17.4682  -22.3653  -18.8076 N   0  0  0  0  0  0  0  0  0  0  0  0
  1  2  2  0
  2  3  1  0
  2  4  1  0
  3  5  1  0
  4  6  4  0
  4  7  4  0
  5  8  4  0
  5  9  4  0
  6 10  4  0
  6 11  4  0
  7 12  4  0
  8 13  4  0
  9 14  4  0
 10 15  4  0
 10 16  4  0
 11 17  4  0
 12 18  1  0
 13 19  4  0
 16 20  4  0
 18 21  4  0
 18 22  4  0
 21 23  4  0
 22 24  4  0
 23 25  4  0
 12 15  4  0
 14 19  4  0
 17 20  4  0
 24 25  4  0
M  END
