
     RDKit          3D

 43 45  0  0  0  0  0  0  0  0999 V2000
   -8.4825  -20.8115  -18.1914 S   0  0  0  0  0  6  0  0  0  0  0  0
   -9.8895  -20.4770  -18.2676 O   0  0  0  0  0  0  0  0  0  0  0  0
   -7.4570  -19.8056  -18.3544 O   0  0  0  0  0  0  0  0  0  0  0  0
   -8.2091  -22.0899  -19.2933 N   0  0  0  0  0  0  0  0  0  0  0  0
   -8.1771  -21.6214  -16.6428 C   0  0  0  0  0  0  0  0  0  0  0  0
   -9.3647  -23.0104  -19.4574 C   0  0  0  0  0  0  0  0  0  0  0  0
   -7.5941  -21.6795  -20.5922 C   0  0  0  0  0  0  0  0  0  0  0  0
   -8.5840  -20.9804  -15.4651 C   0  0  0  0  0  0  0  0  0  0  0  0
   -7.5575  -22.8709  -16.6065 C   0  0  0  0  0  0  0  0  0  0  0  0
   -8.9483  -24.4503  -19.2366 C   0  0  0  0  0  0  0  0  0  0  0  0
   -8.6423  -21.0255  -21.5103 C   0  0  0  0  0  0  0  0  0  0  0  0
   -8.4011  -21.6040  -14.2328 C   0  0  0  0  0  0  0  0  0  0  0  0
   -7.3089  -23.4618  -15.3707 C   0  0  0  0  0  0  0  0  0  0  0  0
   -8.3601  -24.8128  -18.2115 O   0  0  0  0  0  0  0  0  0  0  0  0
   -9.2585  -25.4409  -20.3600 C   0  0  0  0  0  0  0  0  0  0  0  0
   -9.6100  -20.1825  -20.6768 C   0  0  0  0  0  0  0  0  0  0  0  0
   -9.4225  -22.0632  -22.3189 C   0  0  0  0  0  0  0  0  0  0  0  0
   -8.7075  -20.9299  -13.0473 N   0  0  0  0  0  0  0  0  0  0  0  0
   -7.7099  -22.8196  -14.1936 C   0  0  0  0  0  0  0  0  0  0  0  0
   -9.8442  -24.6706  -21.4548 N   0  0  0  0  0  0  0  0  0  0  0  0
  -10.2185  -26.5006  -19.8007 C   0  0  0  0  0  0  0  0  0  0  0  0
  -10.3915  -25.2925  -22.5521 C   0  0  0  0  0  0  0  0  0  0  0  0
   -9.5513  -27.6035  -19.0175 C   0  0  0  0  0  0  0  0  0  0  0  0
   -9.8518  -25.3187  -23.6559 O   0  0  0  0  0  0  0  0  0  0  0  0
  -11.7338  -25.9787  -22.2987 C   0  0  0  0  0  0  0  0  0  0  0  0
   -9.2492  -27.4347  -17.6592 C   0  0  0  0  0  0  0  0  0  0  0  0
   -9.2402  -28.8232  -19.6346 C   0  0  0  0  0  0  0  0  0  0  0  0
  -11.9236  -26.9861  -23.3266 N   0  0  0  0  0  0  0  0  0  0  0  0
   -8.6452  -28.4644  -16.9358 C   0  0  0  0  0  0  0  0  0  0  0  0
   -8.6381  -29.8514  -18.9076 C   0  0  0  0  0  0  0  0  0  0  0  0
  -12.0143  -28.3141  -22.9552 C   0  0  0  0  0  0  0  0  0  0  0  0
   -8.3412  -29.6732  -17.5583 C   0  0  0  0  0  0  0  0  0  0  0  0
  -11.4447  -28.7712  -21.9656 O   0  0  0  0  0  0  0  0  0  0  0  0
  -12.8846  -29.1600  -23.8987 C   0  0  0  0  0  0  0  0  0  0  0  0
  -14.2826  -28.6873  -23.9088 N   0  0  0  0  0  0  0  0  0  0  0  0
  -15.2137  -29.8028  -23.7221 C   0  0  0  0  0  0  0  0  0  0  0  0
  -16.6389  -29.3214  -23.8430 C   0  0  0  0  0  0  0  0  0  0  0  0
  -16.9555  -28.2163  -24.6456 C   0  0  0  0  0  0  0  0  0  0  0  0
  -17.6627  -29.9509  -23.1156 C   0  0  0  0  0  0  0  0  0  0  0  0
  -18.2711  -27.7718  -24.7227 C   0  0  0  0  0  0  0  0  0  0  0  0
  -18.9804  -29.4942  -23.2001 C   0  0  0  0  0  0  0  0  0  0  0  0
  -18.5655  -26.7137  -25.4893 F   0  0  0  0  0  0  0  0  0  0  0  0
  -19.2853  -28.4001  -24.0076 C   0  0  0  0  0  0  0  0  0  0  0  0
  1  2  2  0
  1  3  2  0
  1  4  1  0
  1  5  1  0
  4  6  1  0
  4  7  1  0
  5  8  4  0
  5  9  4  0
  6 10  1  0
  7 11  1  0
  8 12  4  0
  9 13  4  0
 10 14  2  0
 10 15  1  0
 11 16  1  0
 11 17  1  0
 12 18  1  0
 12 19  4  0
 15 20  1  0
 15 21  1  0
 20 22  1  0
 21 23  1  0
 22 24  2  0
 22 25  1  0
 23 26  4  0
 23 27  4  0
 25 28  1  0
 26 29  4  0
 27 30  4  0
 28 31  1  0
 29 32  4  0
 31 33  2  0
 31 34  1  0
 34 35  1  0
 35 36  1  0
 36 37  1  0
 37 38  4  0
 37 39  4  0
 38 40  4  0
 39 41  4  0
 40 42  1  0
 40 43  4  0
 13 19  4  0
 30 32  4  0
 41 43  4  0
M  END
