
     RDKit          3D

 35 38  0  0  0  0  0  0  0  0999 V2000
  -14.7194  -31.3974  -20.6179 S   0  0  0  0  0  6  0  0  0  0  0  0
  -14.9241  -32.5561  -19.7712 O   0  0  0  0  0  0  0  0  0  0  0  0
  -15.5647  -30.2288  -20.4599 O   0  0  0  0  0  0  0  0  0  0  0  0
  -14.8193  -31.9170  -22.2217 N   0  0  0  0  0  0  0  0  0  0  0  0
  -13.0196  -30.8879  -20.4178 C   0  0  0  0  0  0  0  0  0  0  0  0
  -16.0829  -31.6876  -22.8383 C   0  0  0  0  0  0  0  0  0  0  0  0
  -13.6447  -31.6595  -23.0743 C   0  0  0  0  0  0  0  0  0  0  0  0
  -16.0260  -30.8397  -23.8917 N   0  0  0  0  0  0  0  0  0  0  0  0
  -17.2511  -32.2871  -22.3722 C   0  0  0  0  0  0  0  0  0  0  0  0
  -17.1861  -30.5826  -24.5315 C   0  0  0  0  0  0  0  0  0  0  0  0
  -18.4285  -31.9880  -23.0701 C   0  0  0  0  0  0  0  0  0  0  0  0
  -17.2783  -33.2707  -21.2336 C   0  0  0  0  0  0  0  0  0  0  0  0
  -18.4000  -31.1301  -24.1645 C   0  0  0  0  0  0  0  0  0  0  0  0
  -18.5827  -33.4328  -20.6032 N   0  0  0  0  0  0  0  0  0  0  0  0
  -19.0195  -34.7047  -20.2395 C   0  0  0  0  0  0  0  0  0  0  0  0
  -19.3396  -34.9471  -18.9548 N   0  0  0  0  0  0  0  0  0  0  0  0
  -19.1507  -35.6854  -21.2012 C   0  0  0  0  0  0  0  0  0  0  0  0
  -19.7827  -36.1668  -18.6123 C   0  0  0  0  0  0  0  0  0  0  0  0
  -19.6456  -36.8952  -20.7642 C   0  0  0  0  0  0  0  0  0  0  0  0
  -18.8701  -35.4630  -22.6439 C   0  0  1  0  0  0  0  0  0  0  0  0
  -19.9698  -37.1596  -19.4864 N   0  0  0  0  0  0  0  0  0  0  0  0
  -20.0714  -36.4641  -17.2736 N   0  0  0  0  0  0  0  0  0  0  0  0
  -19.5235  -34.3679  -23.1401 F   0  0  0  0  0  0  0  0  0  0  0  0
  -17.5534  -35.2343  -22.9071 F   0  0  0  0  0  0  0  0  0  0  0  0
  -19.2522  -36.4909  -23.4477 F   0  0  0  0  0  0  0  0  0  0  0  0
  -21.2802  -37.0380  -16.8124 C   0  0  0  0  0  0  0  0  0  0  0  0
  -22.3597  -37.3088  -17.6702 C   0  0  0  0  0  0  0  0  0  0  0  0
  -21.4367  -37.2268  -15.4193 C   0  0  0  0  0  0  0  0  0  0  0  0
  -23.5361  -37.7897  -17.1233 C   0  0  0  0  0  0  0  0  0  0  0  0
  -22.6262  -37.7239  -14.8758 C   0  0  0  0  0  0  0  0  0  0  0  0
  -23.6515  -37.9957  -15.7524 C   0  0  0  0  0  0  0  0  0  0  0  0
  -24.8256  -38.1560  -17.7945 C   0  0  0  0  0  0  0  0  0  0  0  0
  -24.9115  -38.4902  -15.4598 N   0  0  0  0  0  0  0  0  0  0  0  0
  -25.6786  -38.6277  -16.6109 C   0  0  0  0  0  0  0  0  0  0  0  0
  -26.8203  -39.0535  -16.6600 O   0  0  0  0  0  0  0  0  0  0  0  0
  1  2  2  0
  1  3  2  0
  1  4  1  0
  1  5  1  0
  4  6  1  0
  4  7  1  0
  6  8  4  0
  6  9  4  0
  8 10  4  0
  9 11  4  0
  9 12  1  0
 10 13  4  0
 12 14  1  0
 14 15  1  0
 15 16  4  0
 15 17  4  0
 16 18  4  0
 17 19  4  0
 17 20  1  0
 18 21  4  0
 18 22  1  0
 20 23  1  6
 20 24  1  0
 20 25  1  0
 22 26  1  0
 26 27  4  0
 26 28  4  0
 27 29  4  0
 28 30  4  0
 29 31  4  0
 29 32  1  0
 31 33  1  0
 32 34  1  0
 34 35  2  0
 11 13  4  0
 19 21  4  0
 30 31  4  0
 33 34  1  0
M  END
