
     RDKit          3D

 28 31  0  0  0  0  0  0  0  0999 V2000
  -29.8244  -30.2578  -13.9188 O   0  0  0  0  0  0  0  0  0  0  0  0
  -28.6783  -30.0181  -14.2731 C   0  0  0  0  0  0  0  0  0  0  0  0
  -27.5167  -30.1452  -13.5358 N   0  0  0  0  0  0  0  0  0  0  0  0
  -28.4739  -29.4498  -15.6265 C   0  0  0  0  0  0  0  0  0  0  0  0
  -26.7510  -31.3121  -13.3428 C   0  0  0  0  0  0  0  0  0  0  0  0
  -28.9385  -28.1672  -15.9932 C   0  0  0  0  0  0  0  0  0  0  0  0
  -27.7996  -30.2632  -16.5376 C   0  0  0  0  0  0  0  0  0  0  0  0
  -26.4619  -32.2319  -14.3433 C   0  0  0  0  0  0  0  0  0  0  0  0
  -26.2399  -31.5417  -12.0661 C   0  0  0  0  0  0  0  0  0  0  0  0
  -28.7381  -27.8025  -17.3374 C   0  0  0  0  0  0  0  0  0  0  0  0
  -29.5566  -27.2388  -15.1153 C   0  0  0  0  0  0  0  0  0  0  0  0
  -27.6400  -29.8038  -17.8325 C   0  0  0  0  0  0  0  0  0  0  0  0
  -25.6809  -33.3671  -14.0665 C   0  0  0  0  0  0  0  0  0  0  0  0
  -25.4629  -32.6789  -11.7994 C   0  0  0  0  0  0  0  0  0  0  0  0
  -28.1294  -28.6017  -18.2283 N   0  0  0  0  0  0  0  0  0  0  0  0
  -29.1861  -26.5614  -17.7684 C   0  0  0  0  0  0  0  0  0  0  0  0
  -29.9937  -25.9975  -15.5728 C   0  0  0  0  0  0  0  0  0  0  0  0
  -26.9590  -30.6002  -18.8587 C   0  0  0  0  0  0  0  0  0  0  0  0
  -25.1712  -33.6336  -12.7866 C   0  0  0  0  0  0  0  0  0  0  0  0
  -29.8131  -25.6599  -16.9057 C   0  0  0  0  0  0  0  0  0  0  0  0
  -26.5164  -31.8356  -18.4986 N   0  0  0  0  0  0  0  0  0  0  0  0
  -26.7783  -30.1325  -20.1591 C   0  0  0  0  0  0  0  0  0  0  0  0
  -24.3770  -34.7530  -12.4986 N   0  0  0  0  0  0  0  0  0  0  0  0
  -25.8997  -32.5521  -19.4662 C   0  0  0  0  0  0  0  0  0  0  0  0
  -26.1686  -30.8530  -21.1344 N   0  0  0  0  0  0  0  0  0  0  0  0
  -24.3619  -35.2751  -11.1328 C   0  0  0  0  0  0  0  0  0  0  0  0
  -23.0968  -34.8402  -13.2052 C   0  0  0  0  0  0  0  0  0  0  0  0
  -25.7312  -32.0733  -20.7537 C   0  0  0  0  0  0  0  0  0  0  0  0
  1  2  2  0
  2  3  1  0
  2  4  1  0
  3  5  1  0
  4  6  4  0
  4  7  4  0
  5  8  4  0
  5  9  4  0
  6 10  4  0
  6 11  4  0
  7 12  4  0
  8 13  4  0
  9 14  4  0
 10 15  4  0
 10 16  4  0
 11 17  4  0
 12 18  1  0
 13 19  4  0
 16 20  4  0
 18 21  4  0
 18 22  4  0
 19 23  1  0
 21 24  4  0
 22 25  4  0
 23 26  1  0
 23 27  1  0
 24 28  4  0
 12 15  4  0
 14 19  4  0
 17 20  4  0
 25 28  4  0
M  END
