
     RDKit          3D

 14 15  0  0  0  0  0  0  0  0999 V2000
   10.0563   23.3897 -167.7700 S   0  0  0  0  0  0  0  0  0  0  0  0
   11.2604   22.3634 -168.6717 C   0  0  0  0  0  0  0  0  0  0  0  0
   10.3270   22.7717 -166.0916 C   0  0  0  0  0  0  0  0  0  0  0  0
   11.2601   22.6206 -170.1327 C   0  0  0  0  0  0  0  0  0  0  0  0
   12.2696   22.0576 -170.8556 O   0  0  0  0  0  0  0  0  0  0  0  0
   10.4169   23.3168 -170.9721 C   0  0  0  0  0  0  0  0  0  0  0  0
   12.0903   22.4059 -172.1652 C   0  0  0  0  0  0  0  0  0  0  0  0
   10.9523   23.1818 -172.2770 C   0  0  0  0  0  0  0  0  0  0  0  0
   13.0844   21.9050 -173.1058 C   0  0  0  0  0  0  0  0  0  0  0  0
   13.3312   22.5505 -174.3157 C   0  0  0  0  0  0  0  0  0  0  0  0
   13.8428   20.7582 -172.8469 C   0  0  0  0  0  0  0  0  0  0  0  0
   14.2399   22.1464 -175.2397 N   0  0  0  0  0  0  0  0  0  0  0  0
   14.7856   20.3146 -173.7738 C   0  0  0  0  0  0  0  0  0  0  0  0
   14.9460   21.0356 -174.9443 C   0  0  0  0  0  0  0  0  0  0  0  0
  1  2  1  0
  1  3  1  0
  2  4  1  0
  4  5  4  0
  4  6  4  0
  5  7  4  0
  6  8  4  0
  7  9  1  0
  9 10  4  0
  9 11  4  0
 10 12  4  0
 11 13  4  0
 12 14  4  0
  7  8  4  0
 13 14  4  0
M  END
