
     RDKit          3D

 44 48  0  0  0  0  0  0  0  0999 V2000
  -19.3901  -12.1286  -15.7176 S   0  0  0  0  0  6  0  0  0  0  0  0
  -18.4739  -13.2515  -15.7611 O   0  0  0  0  0  0  0  0  0  0  0  0
  -19.0382  -10.8469  -16.2904 O   0  0  0  0  0  0  0  0  0  0  0  0
  -19.8494  -11.8866  -14.1694 O   0  0  0  0  0  0  0  0  0  0  0  0
  -20.8975  -12.6465  -16.5056 C   0  0  0  0  0  0  0  0  0  0  0  0
  -19.7242  -12.9647  -13.2532 C   0  0  0  0  0  0  0  0  0  0  0  0
  -20.8525  -13.4858  -17.6204 C   0  0  0  0  0  0  0  0  0  0  0  0
  -22.1189  -12.2508  -15.9562 C   0  0  0  0  0  0  0  0  0  0  0  0
  -20.8332  -14.0164  -13.4197 C   0  0  0  0  0  0  0  0  0  0  0  0
  -22.0460  -13.9429  -18.1822 C   0  0  0  0  0  0  0  0  0  0  0  0
  -23.3073  -12.7179  -16.5180 C   0  0  0  0  0  0  0  0  0  0  0  0
  -20.6306  -14.6669  -14.6979 O   0  0  0  0  0  0  0  0  0  0  0  0
  -20.8899  -15.1937  -12.4532 C   0  0  0  0  0  0  0  0  0  0  0  0
  -23.2794  -13.5789  -17.6251 C   0  0  0  0  0  0  0  0  0  0  0  0
  -20.0047  -15.9249  -14.4121 C   0  0  0  0  0  0  0  0  0  0  0  0
  -19.8791  -16.0709  -12.9922 O   0  0  0  0  0  0  0  0  0  0  0  0
  -20.7120  -14.9491  -10.9332 C   0  0  0  0  0  0  0  0  0  0  0  0
  -24.5586  -14.0594  -18.2481 C   0  0  0  0  0  0  0  0  0  0  0  0
  -20.8853  -17.0439  -14.9670 C   0  0  0  0  0  0  0  0  0  0  0  0
  -18.6227  -15.9753  -15.0487 C   0  0  0  0  0  0  0  0  0  0  0  0
  -20.9973  -16.1558  -10.1962 O   0  0  0  0  0  0  0  0  0  0  0  0
  -21.6899  -13.8422  -10.4091 C   0  0  0  0  0  0  0  0  0  0  0  0
  -22.2172  -16.8009  -10.5413 C   0  0  0  0  0  0  0  0  0  0  0  0
  -21.7920  -13.8217   -8.8850 C   0  0  0  0  0  0  0  0  0  0  0  0
  -23.1114  -13.9458  -11.0275 C   0  0  0  0  0  0  0  0  0  0  0  0
  -22.7225  -17.4655   -9.3853 O   0  0  0  0  0  0  0  0  0  0  0  0
  -22.9051  -14.4166   -8.2622 C   0  0  0  0  0  0  0  0  0  0  0  0
  -20.7580  -13.2770   -8.0846 C   0  0  0  0  0  0  0  0  0  0  0  0
  -23.1887  -13.4422  -12.3927 N   0  0  0  0  0  0  0  0  0  0  0  0
  -24.0271  -17.0092   -9.0609 C   0  0  0  0  0  0  0  0  0  0  0  0
  -22.9570  -14.4201   -6.8844 C   0  0  0  0  0  0  0  0  0  0  0  0
  -20.8383  -13.3040   -6.6884 C   0  0  0  0  0  0  0  0  0  0  0  0
  -24.1041  -13.9459  -13.2938 C   0  0  0  0  0  0  0  0  0  0  0  0
  -23.9615  -14.9421   -6.1313 O   0  0  0  0  0  0  0  0  0  0  0  0
  -21.9525  -13.8788   -6.1196 C   0  0  0  0  0  0  0  0  0  0  0  0
  -25.0850  -13.3202  -13.6822 O   0  0  0  0  0  0  0  0  0  0  0  0
  -23.8803  -15.3501  -13.7386 C   0  0  0  0  0  0  0  0  0  0  0  0
  -23.4732  -14.6658   -4.8010 C   0  0  0  0  0  0  0  0  0  0  0  0
  -22.1937  -13.9968   -4.7867 O   0  0  0  0  0  0  0  0  0  0  0  0
  -23.8473  -15.6179  -15.1128 C   0  0  0  0  0  0  0  0  0  0  0  0
  -23.6867  -16.3943  -12.8253 C   0  0  0  0  0  0  0  0  0  0  0  0
  -23.6464  -16.9216  -15.5703 C   0  0  0  0  0  0  0  0  0  0  0  0
  -23.4854  -17.6962  -13.2869 C   0  0  0  0  0  0  0  0  0  0  0  0
  -23.4694  -17.9595  -14.6565 C   0  0  0  0  0  0  0  0  0  0  0  0
  1  2  2  0
  1  3  2  0
  1  4  1  0
  1  5  1  0
  4  6  1  0
  5  7  4  0
  5  8  4  0
  9  6  1  0
  7 10  4  0
  8 11  4  0
  9 12  1  0
  9 13  1  0
 10 14  4  0
 12 15  1  0
 13 16  1  0
 13 17  1  0
 14 18  1  0
 15 19  1  0
 15 20  1  0
 17 21  1  0
 17 22  1  0
 21 23  1  0
 22 24  1  0
 22 25  1  0
 23 26  1  0
 24 27  4  0
 24 28  4  0
 25 29  1  0
 26 30  1  0
 27 31  4  0
 28 32  4  0
 29 33  1  0
 31 34  1  0
 31 35  4  0
 33 36  2  0
 33 37  1  0
 34 38  1  0
 35 39  1  0
 37 40  4  0
 37 41  4  0
 40 42  4  0
 41 43  4  0
 42 44  4  0
 11 14  4  0
 15 16  1  0
 32 35  4  0
 38 39  1  0
 43 44  4  0
M  END
