
     RDKit          3D

 39 43  0  0  0  0  0  0  0  0999 V2000
  -22.8802  -37.6848  -18.3902 O   0  0  0  0  0  0  0  0  0  0  0  0
  -22.1848  -37.5405  -17.3954 C   0  0  0  0  0  0  0  0  0  0  0  0
  -20.9064  -37.0933  -17.3744 O   0  0  0  0  0  0  0  0  0  0  0  0
  -22.6756  -37.8227  -16.0198 C   0  0  0  0  0  0  0  0  0  0  0  0
  -20.4712  -36.3132  -18.5021 C   0  0  0  0  0  0  0  0  0  0  0  0
  -23.9999  -38.1912  -15.7520 C   0  0  0  0  0  0  0  0  0  0  0  0
  -21.7651  -37.7217  -14.9582 C   0  0  0  0  0  0  0  0  0  0  0  0
  -21.5469  -35.3294  -18.9748 C   0  0  0  0  0  0  0  0  0  0  0  0
  -19.0486  -35.6786  -18.2678 C   0  0  0  0  0  0  0  0  0  0  0  0
  -24.4052  -38.4642  -14.4437 C   0  0  0  0  0  0  0  0  0  0  0  0
  -22.1736  -37.9915  -13.6502 C   0  0  0  0  0  0  0  0  0  0  0  0
  -22.3256  -34.5099  -18.1273 C   0  0  0  0  0  0  0  0  0  0  0  0
  -21.7404  -35.2319  -20.3741 C   0  0  0  0  0  0  0  0  0  0  0  0
  -18.7511  -34.7380  -19.3288 O   0  0  0  0  0  0  0  0  0  0  0  0
  -18.7968  -34.8993  -16.9369 C   0  0  0  0  0  0  0  0  0  0  0  0
  -17.9953  -36.8003  -18.4302 C   0  0  0  0  0  0  0  0  0  0  0  0
  -23.4929  -38.3635  -13.3938 C   0  0  0  0  0  0  0  0  0  0  0  0
  -23.1948  -33.5566  -18.7272 C   0  0  0  0  0  0  0  0  0  0  0  0
  -22.2681  -34.6160  -16.6532 C   0  0  0  0  0  0  0  0  0  0  0  0
  -22.6634  -34.3456  -20.9336 C   0  0  0  0  0  0  0  0  0  0  0  0
  -19.8303  -33.7904  -16.6269 C   0  0  0  0  0  0  0  0  0  0  0  0
  -18.4810  -35.7732  -15.7159 C   0  0  0  0  0  0  0  0  0  0  0  0
  -23.9288  -32.7062  -17.9235 O   0  0  0  0  0  0  0  0  0  0  0  0
  -23.3720  -33.4691  -20.1191 C   0  0  0  0  0  0  0  0  0  0  0  0
  -23.4062  -35.0579  -15.9270 C   0  0  0  0  0  0  0  0  0  0  0  0
  -21.0993  -34.2404  -15.9303 C   0  0  0  0  0  0  0  0  0  0  0  0
  -22.8115  -34.3381  -22.2949 O   0  0  0  0  0  0  0  0  0  0  0  0
  -25.3239  -32.8663  -18.1740 C   0  0  0  0  0  0  0  0  0  0  0  0
  -24.2990  -32.5649  -20.5735 O   0  0  0  0  0  0  0  0  0  0  0  0
  -24.5714  -35.3809  -16.5738 O   0  0  0  0  0  0  0  0  0  0  0  0
  -23.3709  -35.0652  -14.5440 C   0  0  0  0  0  0  0  0  0  0  0  0
  -21.1090  -34.2621  -14.5182 C   0  0  0  0  0  0  0  0  0  0  0  0
  -21.6255  -33.8327  -22.9160 C   0  0  0  0  0  0  0  0  0  0  0  0
  -25.3378  -33.1258  -21.3680 C   0  0  0  0  0  0  0  0  0  0  0  0
  -25.6786  -34.6610  -16.0393 C   0  0  0  0  0  0  0  0  0  0  0  0
  -24.3794  -35.4270  -13.7017 O   0  0  0  0  0  0  0  0  0  0  0  0
  -22.2479  -34.6737  -13.8636 C   0  0  0  0  0  0  0  0  0  0  0  0
  -23.7660  -35.1950  -12.4207 C   0  0  0  0  0  0  0  0  0  0  0  0
  -22.4000  -34.7439  -12.5134 O   0  0  0  0  0  0  0  0  0  0  0  0
  1  2  2  0
  2  3  1  0
  2  4  1  0
  5  3  1  0
  4  6  4  0
  4  7  4  0
  5  8  1  0
  5  9  1  0
  6 10  4  0
  7 11  4  0
  8 12  4  0
  8 13  4  0
  9 14  1  0
  9 15  1  0
  9 16  1  0
 10 17  4  0
 12 18  4  0
 12 19  1  0
 13 20  4  0
 15 21  1  0
 15 22  1  0
 18 23  1  0
 18 24  4  0
 19 25  4  0
 19 26  4  0
 20 27  1  0
 23 28  1  0
 24 29  1  0
 25 30  1  0
 25 31  4  0
 26 32  4  0
 27 33  1  0
 29 34  1  0
 30 35  1  0
 31 36  1  0
 31 37  4  0
 36 38  1  0
 37 39  1  0
 11 17  4  0
 20 24  4  0
 21 26  1  0
 32 37  4  0
 38 39  1  0
M  END
