
     RDKit          3D

 26 29  0  0  0  0  0  0  0  0999 V2000
  -17.6477  -17.8296  -11.1366 O   0  0  0  0  0  0  0  0  0  0  0  0
  -18.1292  -18.7976  -11.7075 C   0  0  0  0  0  0  0  0  0  0  0  0
  -18.1190  -19.0892  -13.0575 N   0  0  0  0  0  0  0  0  0  0  0  0
  -18.7875  -19.8353  -10.8850 C   0  0  0  0  0  0  0  0  0  0  0  0
  -18.4972  -20.2988  -13.6741 C   0  0  0  0  0  0  0  0  0  0  0  0
  -18.5844  -19.9240   -9.4929 C   0  0  0  0  0  0  0  0  0  0  0  0
  -19.6318  -20.7189  -11.5542 C   0  0  0  0  0  0  0  0  0  0  0  0
  -18.9208  -20.3987  -14.9989 C   0  0  0  0  0  0  0  0  0  0  0  0
  -18.4489  -21.4588  -12.8919 C   0  0  0  0  0  0  0  0  0  0  0  0
  -19.3154  -20.9246   -8.8294 C   0  0  0  0  0  0  0  0  0  0  0  0
  -17.7027  -19.1012   -8.7459 C   0  0  0  0  0  0  0  0  0  0  0  0
  -20.3077  -21.6769  -10.8160 C   0  0  0  0  0  0  0  0  0  0  0  0
  -19.2851  -21.6389  -15.5362 C   0  0  0  0  0  0  0  0  0  0  0  0
  -18.8127  -22.6984  -13.4277 C   0  0  0  0  0  0  0  0  0  0  0  0
  -20.1523  -21.7624   -9.4657 N   0  0  0  0  0  0  0  0  0  0  0  0
  -19.1687  -21.0563   -7.4547 C   0  0  0  0  0  0  0  0  0  0  0  0
  -17.5720  -19.2565   -7.3676 C   0  0  0  0  0  0  0  0  0  0  0  0
  -21.2399  -22.6451  -11.4426 C   0  0  0  0  0  0  0  0  0  0  0  0
  -19.2221  -22.8001  -14.7599 C   0  0  0  0  0  0  0  0  0  0  0  0
  -18.3112  -20.2348   -6.7189 C   0  0  0  0  0  0  0  0  0  0  0  0
  -21.4826  -23.7930  -10.7503 N   0  0  0  0  0  0  0  0  0  0  0  0
  -21.8418  -22.4069  -12.6803 C   0  0  0  0  0  0  0  0  0  0  0  0
  -19.6444  -24.1209  -15.3306 C   0  0  0  0  0  0  0  0  0  0  0  0
  -22.3294  -24.6954  -11.2946 C   0  0  0  0  0  0  0  0  0  0  0  0
  -22.7094  -23.3558  -13.2184 C   0  0  0  0  0  0  0  0  0  0  0  0
  -22.9603  -24.5240  -12.5131 C   0  0  0  0  0  0  0  0  0  0  0  0
  1  2  2  0
  2  3  1  0
  2  4  1  0
  3  5  1  0
  4  6  4  0
  4  7  4  0
  5  8  4  0
  5  9  4  0
  6 10  4  0
  6 11  4  0
  7 12  4  0
  8 13  4  0
  9 14  4  0
 10 15  4  0
 10 16  4  0
 11 17  4  0
 12 18  1  0
 13 19  4  0
 16 20  4  0
 18 21  4  0
 18 22  4  0
 19 23  1  0
 21 24  4  0
 22 25  4  0
 24 26  4  0
 12 15  4  0
 14 19  4  0
 17 20  4  0
 25 26  4  0
M  END
