
     RDKit          3D

 31 35  0  0  0  0  0  0  0  0999 V2000
  -11.5427  -27.7374   -4.8567 Si  0  0  0  0  0  4  0  0  0  0  0  0
  -12.3245  -29.0502   -5.5456 O   0  0  0  0  0  0  0  0  0  0  0  0
  -12.9500  -26.2146   -4.6699 C   0  0  2  0  0  0  0  0  0  0  0  0
  -10.8974  -28.1091   -3.1362 C   0  0  0  0  0  0  0  0  0  0  0  0
  -10.1628  -27.0842   -5.9435 C   0  0  0  0  0  0  0  0  0  0  0  0
  -12.8479  -28.9757   -6.8771 C   0  0  0  0  0  0  0  0  0  0  0  0
  -14.2351  -26.8083   -4.0578 C   0  0  0  0  0  0  0  0  0  0  0  0
  -13.2481  -25.6178   -6.0578 C   0  0  0  0  0  0  0  0  0  0  0  0
  -12.3761  -25.1303   -3.7350 C   0  0  0  0  0  0  0  0  0  0  0  0
  -11.8643  -29.6675   -7.7801 C   0  0  0  0  0  0  0  0  0  0  0  0
  -14.2483  -29.6719   -6.9348 C   0  0  0  0  0  0  0  0  0  0  0  0
  -11.9970  -30.9689   -8.0664 C   0  0  0  0  0  0  0  0  0  0  0  0
  -15.1390  -29.0295   -5.9869 O   0  0  0  0  0  0  0  0  0  0  0  0
  -14.1202  -31.1804   -6.5867 C   0  0  0  0  0  0  0  0  0  0  0  0
  -13.0644  -31.8525   -7.4956 C   0  0  0  0  0  0  0  0  0  0  0  0
  -11.3598  -31.6958   -9.2137 C   0  0  0  0  0  0  0  0  0  0  0  0
  -16.4683  -29.1954   -6.2094 C   0  0  0  0  0  0  0  0  0  0  0  0
  -15.4435  -31.9595   -6.6249 C   0  0  0  0  0  0  0  0  0  0  0  0
  -13.6001  -32.3700   -8.7636 N   0  0  0  0  0  0  0  0  0  0  0  0
  -12.4126  -32.7730   -9.5326 C   0  0  0  0  0  0  0  0  0  0  0  0
  -16.9734  -29.5615   -7.2607 O   0  0  0  0  0  0  0  0  0  0  0  0
  -17.2390  -28.8678   -4.9678 C   0  0  0  0  0  0  0  0  0  0  0  0
  -15.6532  -33.0019   -7.5764 C   0  0  0  0  0  0  0  0  0  0  0  0
  -16.4533  -31.6712   -5.6867 C   0  0  0  0  0  0  0  0  0  0  0  0
  -14.5531  -33.4390   -8.5247 C   0  0  0  0  0  0  0  0  0  0  0  0
  -16.8697  -33.7098   -7.5927 C   0  0  0  0  0  0  0  0  0  0  0  0
  -17.6331  -32.3812   -5.7450 C   0  0  0  0  0  0  0  0  0  0  0  0
  -17.8370  -33.3693   -6.6743 C   0  0  0  0  0  0  0  0  0  0  0  0
  -18.7023  -32.2137   -4.9211 O   0  0  0  0  0  0  0  0  0  0  0  0
  -19.0599  -33.9519   -6.5550 O   0  0  0  0  0  0  0  0  0  0  0  0
  -19.6070  -33.2054   -5.4486 C   0  0  0  0  0  0  0  0  0  0  0  0
  1  2  1  0
  1  3  1  0
  1  4  1  0
  1  5  1  0
  6  2  1  0
  3  7  1  1
  3  8  1  0
  3  9  1  0
  6 10  1  0
  6 11  1  0
 10 12  2  0
 11 13  1  0
 11 14  1  0
 12 15  1  0
 12 16  1  0
 13 17  1  0
 14 18  1  0
 15 19  1  0
 16 20  1  0
 17 21  2  0
 17 22  1  0
 18 23  4  0
 18 24  4  0
 19 25  1  0
 23 26  4  0
 24 27  4  0
 26 28  4  0
 27 29  1  0
 28 30  1  0
 29 31  1  0
 14 15  1  0
 19 20  1  0
 23 25  1  0
 27 28  4  0
 30 31  1  0
M  END
