
     RDKit          3D

 46 49  0  0  0  0  0  0  0  0999 V2000
  -20.4108  -12.8093  -16.0028 O   0  0  0  0  0  0  0  0  0  0  0  0
  -20.1576  -13.3132  -14.9132 C   0  0  0  0  0  0  0  0  0  0  0  0
  -20.6573  -12.8547  -13.7101 N   0  0  0  0  0  0  0  0  0  0  0  0
  -19.3779  -14.4277  -14.8631 N   0  0  0  0  0  0  0  0  0  0  0  0
  -21.5771  -11.6905  -13.7122 C   0  0  1  0  0  0  0  0  0  0  0  0
  -20.2226  -13.4205  -12.4361 C   0  0  0  0  0  0  0  0  0  0  0  0
  -18.9133  -15.0707  -13.6634 C   0  0  0  0  0  0  0  0  0  0  0  0
  -23.0223  -12.0883  -13.3118 C   0  0  0  0  0  0  0  0  0  0  0  0
  -21.0692  -10.4126  -12.9939 C   0  0  2  0  0  0  0  0  0  0  0  0
  -19.9248  -14.9030  -12.5527 C   0  0  0  0  0  0  0  0  0  0  0  0
  -24.0231  -11.5450  -13.7697 O   0  0  0  0  0  0  0  0  0  0  0  0
  -23.0844  -13.1915  -12.4830 N   0  0  0  0  0  0  0  0  0  0  0  0
  -21.8097  -10.1774  -11.6744 C   0  0  0  0  0  0  0  0  0  0  0  0
  -21.0860   -9.1347  -13.8370 C   0  0  0  0  0  0  0  0  0  0  0  0
  -23.5698  -14.4967  -12.9277 C   0  0  0  0  0  0  0  0  0  0  0  0
  -22.7289  -15.0303  -14.1121 C   0  0  0  0  0  0  0  0  0  0  0  0
  -23.6136  -15.4731  -11.7406 C   0  0  0  0  0  0  0  0  0  0  0  0
  -22.5929  -16.5364  -14.1666 C   0  0  0  0  0  0  0  0  0  0  0  0
  -22.2427  -15.7277  -11.0949 C   0  0  0  0  0  0  0  0  0  0  0  0
  -23.6977  -17.3615  -13.9131 C   0  0  0  0  0  0  0  0  0  0  0  0
  -21.3653  -17.1292  -14.4940 C   0  0  0  0  0  0  0  0  0  0  0  0
  -21.7868  -17.0263  -11.5097 O   0  0  0  0  0  0  0  0  0  0  0  0
  -22.1673  -15.6332   -9.5446 C   0  0  0  0  0  0  0  0  0  0  0  0
  -23.5844  -18.7485  -14.0068 C   0  0  0  0  0  0  0  0  0  0  0  0
  -21.2514  -18.5181  -14.5815 C   0  0  0  0  0  0  0  0  0  0  0  0
  -20.9082  -15.0213   -9.0857 N   0  0  0  0  0  0  0  0  0  0  0  0
  -23.3770  -14.8021   -9.0418 C   0  0  0  0  0  0  0  0  0  0  0  0
  -22.3614  -19.3261  -14.3430 C   0  0  0  0  0  0  0  0  0  0  0  0
  -20.6772  -14.6658   -7.7750 C   0  0  0  0  0  0  0  0  0  0  0  0
  -24.3907  -15.5940   -8.2463 C   0  0  0  0  0  0  0  0  0  0  0  0
  -21.5005  -14.0681   -7.0882 O   0  0  0  0  0  0  0  0  0  0  0  0
  -19.2855  -15.0404   -7.2496 C   0  0  0  0  0  0  0  0  0  0  0  0
  -25.4454  -16.2452   -8.9001 C   0  0  0  0  0  0  0  0  0  0  0  0
  -24.2845  -15.7072   -6.8537 C   0  0  0  0  0  0  0  0  0  0  0  0
  -18.8491  -14.3682   -6.0723 O   0  0  0  0  0  0  0  0  0  0  0  0
  -26.3863  -16.9780   -8.1736 C   0  0  0  0  0  0  0  0  0  0  0  0
  -25.2298  -16.4358   -6.1299 C   0  0  0  0  0  0  0  0  0  0  0  0
  -18.3827  -15.2210   -5.1044 C   0  0  0  0  0  0  0  0  0  0  0  0
  -26.2825  -17.0659   -6.7889 C   0  0  0  0  0  0  0  0  0  0  0  0
  -19.2465  -15.8186   -4.1700 C   0  0  0  0  0  0  0  0  0  0  0  0
  -17.0120  -15.5395   -5.1274 C   0  0  0  0  0  0  0  0  0  0  0  0
  -18.6947  -16.6363   -3.1735 C   0  0  0  0  0  0  0  0  0  0  0  0
  -20.7372  -15.6311   -4.1990 C   0  0  0  0  0  0  0  0  0  0  0  0
  -16.4941  -16.3784   -4.1345 C   0  0  0  0  0  0  0  0  0  0  0  0
  -16.1136  -15.0607   -6.2344 C   0  0  0  0  0  0  0  0  0  0  0  0
  -17.3278  -16.9050   -3.1495 C   0  0  0  0  0  0  0  0  0  0  0  0
  1  2  2  0
  2  3  1  0
  2  4  1  0
  5  3  1  1
  3  6  1  0
  4  7  1  0
  5  8  1  0
  5  9  1  0
  6 10  1  0
  8 11  2  0
  8 12  1  0
  9 13  1  1
  9 14  1  0
 15 12  1  0
 15 16  1  0
 15 17  1  0
 16 18  1  0
 17 19  1  0
 18 20  4  0
 18 21  4  0
 19 22  1  0
 19 23  1  0
 20 24  4  0
 21 25  4  0
 23 26  1  0
 23 27  1  0
 24 28  4  0
 26 29  1  0
 27 30  1  0
 29 31  2  0
 29 32  1  0
 30 33  4  0
 30 34  4  0
 32 35  1  0
 33 36  4  0
 34 37  4  0
 35 38  1  0
 36 39  4  0
 38 40  4  0
 38 41  4  0
 40 42  4  0
 40 43  1  0
 41 44  4  0
 41 45  1  0
 42 46  4  0
  7 10  1  0
 25 28  4  0
 37 39  4  0
 44 46  4  0
M  END
