
     RDKit          3D

 13 14  0  0  0  0  0  0  0  0999 V2000
   33.6668  103.7118 -167.6285 S   0  0  0  0  0  0  0  0  0  0  0  0
   34.3271  105.3570 -167.2446 C   0  0  0  0  0  0  0  0  0  0  0  0
   35.3679  105.7628 -168.2181 C   0  0  0  0  0  0  0  0  0  0  0  0
   36.1608  106.8131 -167.8601 O   0  0  0  0  0  0  0  0  0  0  0  0
   35.7508  105.2889 -169.4549 C   0  0  0  0  0  0  0  0  0  0  0  0
   37.0522  107.0274 -168.8751 C   0  0  0  0  0  0  0  0  0  0  0  0
   36.8303  106.1027 -169.8777 C   0  0  0  0  0  0  0  0  0  0  0  0
   37.9933  108.1242 -168.6859 C   0  0  0  0  0  0  0  0  0  0  0  0
   38.9519  108.0932 -167.6750 C   0  0  0  0  0  0  0  0  0  0  0  0
   37.9881  109.2602 -169.5025 C   0  0  0  0  0  0  0  0  0  0  0  0
   39.8597  109.0739 -167.4360 N   0  0  0  0  0  0  0  0  0  0  0  0
   38.9074  110.2865 -169.2862 C   0  0  0  0  0  0  0  0  0  0  0  0
   39.8146  110.1483 -168.2503 C   0  0  0  0  0  0  0  0  0  0  0  0
  1  2  1  0
  2  3  1  0
  3  4  4  0
  3  5  4  0
  4  6  4  0
  5  7  4  0
  6  8  1  0
  8  9  4  0
  8 10  4  0
  9 11  4  0
 10 12  4  0
 11 13  4  0
  6  7  4  0
 12 13  4  0
M  END
