
     RDKit          3D

 25 28  0  0  0  0  0  0  0  0999 V2000
  -27.3151  -17.1732  -15.9884 O   0  0  0  0  0  0  0  0  0  0  0  0
  -26.6102  -18.1412  -15.7198 C   0  0  0  0  0  0  0  0  0  0  0  0
  -26.4345  -19.3051  -16.4437 N   0  0  0  0  0  0  0  0  0  0  0  0
  -25.8700  -18.1145  -14.4358 C   0  0  0  0  0  0  0  0  0  0  0  0
  -27.2012  -20.4877  -16.3661 C   0  0  0  0  0  0  0  0  0  0  0  0
  -24.6119  -17.4808  -14.2952 C   0  0  0  0  0  0  0  0  0  0  0  0
  -26.4924  -18.7382  -13.3567 C   0  0  0  0  0  0  0  0  0  0  0  0
  -28.2698  -20.7822  -17.2181 C   0  0  0  0  0  0  0  0  0  0  0  0
  -26.8458  -21.4178  -15.3766 C   0  0  0  0  0  0  0  0  0  0  0  0
  -24.0176  -17.5580  -13.0183 C   0  0  0  0  0  0  0  0  0  0  0  0
  -23.9356  -16.7763  -15.3246 C   0  0  0  0  0  0  0  0  0  0  0  0
  -25.8296  -18.7342  -12.1396 C   0  0  0  0  0  0  0  0  0  0  0  0
  -28.9780  -21.9828  -17.0806 C   0  0  0  0  0  0  0  0  0  0  0  0
  -27.5522  -22.6153  -15.2393 C   0  0  0  0  0  0  0  0  0  0  0  0
  -24.6102  -18.1543  -11.9714 N   0  0  0  0  0  0  0  0  0  0  0  0
  -22.7646  -16.9883  -12.8254 C   0  0  0  0  0  0  0  0  0  0  0  0
  -22.6817  -16.2071  -15.1026 C   0  0  0  0  0  0  0  0  0  0  0  0
  -26.4303  -19.3328  -10.9466 C   0  0  0  0  0  0  0  0  0  0  0  0
  -28.6256  -22.8937  -16.0889 C   0  0  0  0  0  0  0  0  0  0  0  0
  -22.0891  -16.3244  -13.8506 C   0  0  0  0  0  0  0  0  0  0  0  0
  -25.5838  -19.5862   -9.9119 N   0  0  0  0  0  0  0  0  0  0  0  0
  -27.7869  -19.6147  -10.8976 C   0  0  0  0  0  0  0  0  0  0  0  0
  -26.1433  -20.1400   -8.8297 C   0  0  0  0  0  0  0  0  0  0  0  0
  -28.2347  -20.2111   -9.7457 C   0  0  0  0  0  0  0  0  0  0  0  0
  -27.4354  -20.4810   -8.6945 N   0  0  0  0  0  0  0  0  0  0  0  0
  1  2  2  0
  2  3  1  0
  2  4  1  0
  3  5  1  0
  4  6  4  0
  4  7  4  0
  5  8  4  0
  5  9  4  0
  6 10  4  0
  6 11  4  0
  7 12  4  0
  8 13  4  0
  9 14  4  0
 10 15  4  0
 10 16  4  0
 11 17  4  0
 12 18  1  0
 13 19  4  0
 16 20  4  0
 18 21  4  0
 18 22  4  0
 21 23  4  0
 22 24  4  0
 23 25  4  0
 12 15  4  0
 14 19  4  0
 17 20  4  0
 24 25  4  0
M  END
