
     RDKit          3D

 32 33  0  0  0  0  0  0  0  0999 V2000
  -14.6889  -33.6622  -11.9136 O   0  0  0  0  0  0  0  0  0  0  0  0
  -13.7852  -32.6328  -11.8972 C   0  0  0  0  0  0  0  0  0  0  0  0
  -14.3799  -34.5620  -12.9821 C   0  0  0  0  0  0  0  0  0  0  0  0
  -13.4184  -31.9811  -10.7198 C   0  0  0  0  0  0  0  0  0  0  0  0
  -13.2579  -32.2255  -13.1293 C   0  0  0  0  0  0  0  0  0  0  0  0
  -13.9048  -32.2810   -9.4764 O   0  0  0  0  0  0  0  0  0  0  0  0
  -12.4506  -30.9830  -10.7739 C   0  0  0  0  0  0  0  0  0  0  0  0
  -12.3091  -31.1882  -13.2157 C   0  0  0  0  0  0  0  0  0  0  0  0
  -13.2941  -33.4398   -8.9091 C   0  0  0  0  0  0  0  0  0  0  0  0
  -11.9042  -30.5904  -12.0030 C   0  0  0  0  0  0  0  0  0  0  0  0
  -11.7060  -30.7528  -14.5730 C   0  0  0  0  0  0  0  0  0  0  0  0
  -11.6647  -29.2612  -14.7139 C   0  0  0  0  0  0  0  0  0  0  0  0
  -10.2072  -31.2643  -14.7184 C   0  0  0  0  0  0  0  0  0  0  0  0
  -12.5494  -31.2667  -15.7984 C   0  0  0  0  0  0  0  0  0  0  0  0
  -11.6131  -28.1077  -14.8371 N   0  0  0  0  0  0  0  0  0  0  0  0
   -9.3848  -30.5786  -15.8206 C   0  0  0  0  0  0  0  0  0  0  0  0
  -10.0810  -32.7883  -14.9034 C   0  0  0  0  0  0  0  0  0  0  0  0
  -11.7361  -31.6261  -17.0607 C   0  0  0  0  0  0  0  0  0  0  0  0
  -11.2923  -30.3950  -17.8653 C   0  0  0  0  0  0  0  0  0  0  0  0
  -12.3994  -29.4640  -18.0811 N   0  0  0  0  0  0  0  0  0  0  0  0
  -13.0102  -29.6260  -19.4082 C   0  0  0  0  0  0  0  0  0  0  0  0
  -12.3170  -28.8205  -20.5217 C   0  0  0  0  0  0  0  0  0  0  0  0
  -11.2750  -27.8471  -20.0256 C   0  0  0  0  0  0  0  0  0  0  0  0
  -10.4379  -28.1951  -18.9597 C   0  0  0  0  0  0  0  0  0  0  0  0
  -11.1171  -26.5909  -20.6230 C   0  0  0  0  0  0  0  0  0  0  0  0
   -9.4737  -27.2967  -18.4917 C   0  0  0  0  0  0  0  0  0  0  0  0
  -10.1202  -25.7105  -20.1864 C   0  0  0  0  0  0  0  0  0  0  0  0
   -8.7135  -27.7324  -17.4316 O   0  0  0  0  0  0  0  0  0  0  0  0
   -9.2786  -26.0614  -19.1250 C   0  0  0  0  0  0  0  0  0  0  0  0
   -7.3598  -27.9699  -17.8157 C   0  0  0  0  0  0  0  0  0  0  0  0
   -8.2634  -25.2697  -18.6586 O   0  0  0  0  0  0  0  0  0  0  0  0
   -8.2634  -23.9147  -19.0922 C   0  0  0  0  0  0  0  0  0  0  0  0
  1  2  1  0
  1  3  1  0
  2  4  4  0
  2  5  4  0
  4  6  1  0
  4  7  4  0
  5  8  4  0
  6  9  1  0
  7 10  4  0
  8 11  1  0
 11 12  1  0
 11 13  1  0
 11 14  1  0
 12 15  3  0
 13 16  1  0
 13 17  1  0
 14 18  1  0
 18 19  1  0
 19 20  1  0
 20 21  1  0
 21 22  1  0
 22 23  1  0
 23 24  4  0
 23 25  4  0
 24 26  4  0
 25 27  4  0
 26 28  1  0
 26 29  4  0
 28 30  1  0
 29 31  1  0
 31 32  1  0
  8 10  4  0
 27 29  4  0
M  END
