
     RDKit          3D

 38 40  0  0  0  0  0  0  0  0999 V2000
  -22.8370  -15.8845   -8.6391 Cl  0  0  0  0  0  0  0  0  0  0  0  0
  -22.9591  -17.8281  -11.2011 O   0  0  0  0  0  0  0  0  0  0  0  0
  -22.6871  -16.8116  -11.9859 C   0  0  0  0  0  0  0  0  0  0  0  0
  -22.8632  -15.5901  -11.3407 N   0  0  0  0  0  0  0  0  0  0  0  0
  -22.2863  -17.2475  -13.3184 C   0  0  0  0  0  0  0  0  0  0  0  0
  -23.5864  -14.5138  -12.0196 C   0  0  0  0  0  0  0  0  0  0  0  0
  -22.4679  -15.3063   -9.9749 C   0  0  0  0  0  0  0  0  0  0  0  0
  -22.7948  -18.5591  -13.6503 N   0  0  0  0  0  0  0  0  0  0  0  0
  -22.4351  -16.3477  -14.4898 C   0  0  0  0  0  0  0  0  0  0  0  0
  -23.4700  -14.2501  -13.3676 C   0  0  0  0  0  0  0  0  0  0  0  0
  -24.3631  -13.7996  -11.1482 C   0  0  0  0  0  0  0  0  0  0  0  0
  -21.8596  -13.9270  -10.0408 C   0  0  0  0  0  0  0  0  0  0  0  0
  -22.3471  -19.5102  -14.5208 C   0  0  0  0  0  0  0  0  0  0  0  0
  -22.6490  -14.9370  -14.3147 N   0  0  0  0  0  0  0  0  0  0  0  0
  -23.5963  -16.8956  -15.3506 C   0  0  0  0  0  0  0  0  0  0  0  0
  -24.1691  -13.2055  -13.9128 C   0  0  0  0  0  0  0  0  0  0  0  0
  -25.0653  -12.7391  -11.6797 C   0  0  0  0  0  0  0  0  0  0  0  0
  -21.0431  -13.4840  -10.9918 C   0  0  0  0  0  0  0  0  0  0  0  0
  -22.3593  -12.9332   -9.1475 C   0  0  0  0  0  0  0  0  0  0  0  0
  -22.4126  -19.0737  -15.8173 O   0  0  0  0  0  0  0  0  0  0  0  0
  -21.8215  -20.8238  -14.3559 C   0  0  0  0  0  0  0  0  0  0  0  0
  -21.9321  -14.0585  -15.1506 C   0  0  0  0  0  0  0  0  0  0  0  0
  -24.9678  -12.4477  -13.0403 C   0  0  0  0  0  0  0  0  0  0  0  0
  -20.5969  -12.2593  -11.3079 C   0  0  0  0  0  0  0  0  0  0  0  0
  -20.4904  -14.5312  -11.8148 C   0  0  0  0  0  0  0  0  0  0  0  0
  -21.9311  -11.6015   -9.4028 C   0  0  0  0  0  0  0  0  0  0  0  0
  -23.2165  -13.1786   -8.0024 C   0  0  0  0  0  0  0  0  0  0  0  0
  -21.1351  -21.3251  -15.5107 N   0  0  0  0  0  0  0  0  0  0  0  0
  -23.0816  -21.7378  -14.1442 C   0  0  0  0  0  0  0  0  0  0  0  0
  -21.4228  -12.9724  -14.6693 O   0  0  0  0  0  0  0  0  0  0  0  0
  -21.7128  -14.2516  -16.5794 C   0  0  0  0  0  0  0  0  0  0  0  0
  -25.6363  -11.3589  -13.5297 C   0  0  0  0  0  0  0  0  0  0  0  0
  -21.0977  -11.2363  -10.4210 C   0  0  0  0  0  0  0  0  0  0  0  0
  -19.7114  -11.9564  -12.3132 C   0  0  0  0  0  0  0  0  0  0  0  0
  -19.6055  -14.2441  -12.8125 C   0  0  0  0  0  0  0  0  0  0  0  0
  -19.7834  -21.7440  -15.3300 C   0  0  0  0  0  0  0  0  0  0  0  0
  -26.3170  -10.2428  -14.0067 N   0  0  0  0  0  0  0  0  0  0  0  0
  -19.1851  -12.9572  -13.1029 C   0  0  0  0  0  0  0  0  0  0  0  0
  2  3  2  0
  3  4  1  0
  3  5  1  0
  4  6  1  0
  4  7  1  0
  5  8  1  0
  5  9  1  0
  6 10  4  0
  6 11  4  0
  7 12  1  0
  8 13  1  0
  9 14  1  0
  9 15  1  0
 10 16  4  0
 11 17  4  0
 12 18  4  0
 12 19  4  0
 13 20  2  0
 13 21  1  0
 14 22  1  0
 16 23  4  0
 18 24  4  0
 18 25  4  0
 19 26  4  0
 19 27  1  0
 21 28  1  0
 21 29  1  0
 22 30  2  0
 22 31  1  0
 23 32  1  0
 24 33  4  0
 24 34  4  0
 25 35  4  0
 28 36  1  0
 32 37  3  0
 34 38  4  0
 10 14  1  0
 17 23  4  0
 26 33  4  0
 35 38  4  0
M  END
