
     RDKit          3D

 15 16  0  0  0  0  0  0  0  0999 V2000
  -28.6911  -31.8694  -13.3565 O   0  0  0  0  0  0  0  0  0  0  0  0
  -29.2217  -32.6704  -14.3304 C   0  0  0  0  0  0  0  0  0  0  0  0
  -28.4127  -30.6603  -13.9226 C   0  0  0  0  0  0  0  0  0  0  0  0
  -29.5864  -34.0222  -13.9249 C   0  0  0  0  0  0  0  0  0  0  0  0
  -29.2829  -31.9651  -15.5175 C   0  0  0  0  0  0  0  0  0  0  0  0
  -28.7641  -30.6741  -15.2552 C   0  0  0  0  0  0  0  0  0  0  0  0
  -27.8192  -29.6232  -13.0302 C   0  0  0  0  0  0  0  0  0  0  0  0
  -29.2616  -35.1283  -14.7077 C   0  0  0  0  0  0  0  0  0  0  0  0
  -30.2773  -34.2833  -12.7366 C   0  0  0  0  0  0  0  0  0  0  0  0
  -28.2473  -29.7728  -11.6260 N   0  0  0  0  0  0  0  0  0  0  0  0
  -29.5664  -36.4146  -14.3980 N   0  0  0  0  0  0  0  0  0  0  0  0
  -30.6064  -35.5927  -12.3872 C   0  0  0  0  0  0  0  0  0  0  0  0
  -27.8445  -28.5954  -10.8552 C   0  0  0  0  0  0  0  0  0  0  0  0
  -29.6999  -29.9513  -11.5333 C   0  0  0  0  0  0  0  0  0  0  0  0
  -30.2328  -36.6146  -13.2425 C   0  0  0  0  0  0  0  0  0  0  0  0
  1  2  4  0
  1  3  4  0
  2  4  1  0
  2  5  4  0
  3  6  4  0
  3  7  1  0
  4  8  4  0
  4  9  4  0
  7 10  1  0
  8 11  4  0
  9 12  4  0
 10 13  1  0
 10 14  1  0
 11 15  4  0
  5  6  4  0
 12 15  4  0
M  END
