
     RDKit          3D

 27 30  0  0  0  0  0  0  0  0999 V2000
  -13.1178  -23.6983  -23.9687 O   0  0  0  0  0  0  0  0  0  0  0  0
  -13.7513  -23.9462  -22.9532 C   0  0  0  0  0  0  0  0  0  0  0  0
  -13.3934  -24.7646  -21.8996 N   0  0  0  0  0  0  0  0  0  0  0  0
  -15.0797  -23.3194  -22.7813 C   0  0  0  0  0  0  0  0  0  0  0  0
  -13.5024  -26.1685  -21.8353 C   0  0  0  0  0  0  0  0  0  0  0  0
  -15.2125  -21.9273  -22.6187 C   0  0  0  0  0  0  0  0  0  0  0  0
  -16.1914  -24.1647  -22.7816 C   0  0  0  0  0  0  0  0  0  0  0  0
  -12.6132  -26.8425  -20.9921 C   0  0  0  0  0  0  0  0  0  0  0  0
  -14.4315  -26.9129  -22.5626 C   0  0  0  0  0  0  0  0  0  0  0  0
  -16.5262  -21.4506  -22.4792 C   0  0  0  0  0  0  0  0  0  0  0  0
  -14.1347  -21.0070  -22.5981 C   0  0  0  0  0  0  0  0  0  0  0  0
  -17.4471  -23.6010  -22.6351 C   0  0  0  0  0  0  0  0  0  0  0  0
  -12.6589  -28.2356  -20.8801 C   0  0  0  0  0  0  0  0  0  0  0  0
  -14.4762  -28.3102  -22.4493 C   0  0  0  0  0  0  0  0  0  0  0  0
  -17.6005  -22.2606  -22.4922 N   0  0  0  0  0  0  0  0  0  0  0  0
  -16.7263  -20.0848  -22.3271 C   0  0  0  0  0  0  0  0  0  0  0  0
  -14.3625  -19.6415  -22.4426 C   0  0  0  0  0  0  0  0  0  0  0  0
  -18.6976  -24.3902  -22.6147 C   0  0  0  0  0  0  0  0  0  0  0  0
  -13.5898  -28.9778  -21.6068 C   0  0  0  0  0  0  0  0  0  0  0  0
  -15.6634  -19.1784  -22.3076 C   0  0  0  0  0  0  0  0  0  0  0  0
  -19.8810  -23.9494  -23.2251 C   0  0  0  0  0  0  0  0  0  0  0  0
  -18.7482  -25.6310  -21.9607 C   0  0  0  0  0  0  0  0  0  0  0  0
  -13.5284  -30.3285  -21.4068 O   0  0  0  0  0  0  0  0  0  0  0  0
  -21.0170  -24.7453  -23.1654 C   0  0  0  0  0  0  0  0  0  0  0  0
  -19.9295  -26.3562  -21.9537 C   0  0  0  0  0  0  0  0  0  0  0  0
  -14.5448  -30.9033  -20.5947 C   0  0  0  0  0  0  0  0  0  0  0  0
  -21.0660  -25.9402  -22.5461 N   0  0  0  0  0  0  0  0  0  0  0  0
  1  2  2  0
  2  3  1  0
  2  4  1  0
  3  5  1  0
  4  6  4  0
  4  7  4  0
  5  8  4  0
  5  9  4  0
  6 10  4  0
  6 11  4  0
  7 12  4  0
  8 13  4  0
  9 14  4  0
 10 15  4  0
 10 16  4  0
 11 17  4  0
 12 18  1  0
 13 19  4  0
 16 20  4  0
 18 21  4  0
 18 22  4  0
 19 23  1  0
 21 24  4  0
 22 25  4  0
 23 26  1  0
 24 27  4  0
 12 15  4  0
 14 19  4  0
 17 20  4  0
 25 27  4  0
M  END
