
     RDKit          3D

 41 44  0  0  0  0  0  0  0  0999 V2000
  -24.4844  -25.0056  -10.5738 Si  0  0  0  0  0  4  0  0  0  0  0  0
  -24.1893  -24.1258  -11.9695 O   0  0  0  0  0  0  0  0  0  0  0  0
  -22.7514  -26.0599  -10.1252 C   0  0  0  0  0  0  0  0  0  0  0  0
  -24.8515  -23.8876   -9.1130 C   0  0  0  0  0  0  0  0  0  0  0  0
  -25.8605  -26.2592  -10.7944 C   0  0  0  0  0  0  0  0  0  0  0  0
  -24.1196  -24.7964  -13.2250 C   0  0  0  0  0  0  0  0  0  0  0  0
  -22.6320  -27.2771  -11.0618 C   0  0  0  0  0  0  0  0  0  0  0  0
  -21.5414  -25.1221  -10.3161 C   0  0  0  0  0  0  0  0  0  0  0  0
  -22.8255  -26.5249   -8.6560 C   0  0  0  0  0  0  0  0  0  0  0  0
  -23.4496  -23.8715  -14.2531 C   0  0  0  0  0  0  0  0  0  0  0  0
  -24.1359  -23.9501  -15.5099 O   0  0  0  0  0  0  0  0  0  0  0  0
  -23.5415  -22.4034  -13.8533 C   0  0  0  0  0  0  0  0  0  0  0  0
  -25.0391  -22.8411  -15.5431 C   0  0  0  0  0  0  0  0  0  0  0  0
  -24.7718  -21.9649  -14.4443 O   0  0  0  0  0  0  0  0  0  0  0  0
  -22.3324  -21.5483  -14.3271 C   0  0  0  0  0  0  0  0  0  0  0  0
  -26.4773  -23.3403  -15.4344 C   0  0  0  0  0  0  0  0  0  0  0  0
  -24.8541  -22.1030  -16.8652 C   0  0  0  0  0  0  0  0  0  0  0  0
  -21.1417  -22.3000  -14.0454 O   0  0  0  0  0  0  0  0  0  0  0  0
  -22.2784  -20.1788  -13.5689 C   0  0  0  0  0  0  0  0  0  0  0  0
  -20.1075  -22.0966  -15.0045 C   0  0  0  0  0  0  0  0  0  0  0  0
  -23.3835  -19.2227  -14.0234 C   0  0  0  0  0  0  0  0  0  0  0  0
  -20.8906  -19.4987  -13.6628 C   0  0  0  0  0  0  0  0  0  0  0  0
  -20.6480  -21.3985  -16.1164 O   0  0  0  0  0  0  0  0  0  0  0  0
  -24.6220  -19.2267  -13.3562 C   0  0  0  0  0  0  0  0  0  0  0  0
  -23.1803  -18.3165  -15.0929 C   0  0  0  0  0  0  0  0  0  0  0  0
  -20.8472  -18.2159  -12.9771 N   0  0  0  0  0  0  0  0  0  0  0  0
  -22.0637  -21.4902  -16.1536 C   0  0  0  0  0  0  0  0  0  0  0  0
  -25.5956  -18.3448  -13.7756 C   0  0  0  0  0  0  0  0  0  0  0  0
  -24.1874  -17.4327  -15.4947 C   0  0  0  0  0  0  0  0  0  0  0  0
  -21.1626  -17.0430  -13.6290 C   0  0  0  0  0  0  0  0  0  0  0  0
  -26.8403  -18.2237  -13.2408 O   0  0  0  0  0  0  0  0  0  0  0  0
  -25.3843  -17.4728  -14.8158 C   0  0  0  0  0  0  0  0  0  0  0  0
  -20.7803  -16.7689  -14.7609 O   0  0  0  0  0  0  0  0  0  0  0  0
  -21.9934  -16.0769  -12.8607 C   0  0  0  0  0  0  0  0  0  0  0  0
  -27.3903  -17.1797  -14.0711 C   0  0  0  0  0  0  0  0  0  0  0  0
  -26.4691  -16.6933  -15.0688 O   0  0  0  0  0  0  0  0  0  0  0  0
  -21.7711  -14.6951  -12.9333 C   0  0  0  0  0  0  0  0  0  0  0  0
  -23.0009  -16.5760  -12.0267 C   0  0  0  0  0  0  0  0  0  0  0  0
  -22.5723  -13.8209  -12.1955 C   0  0  0  0  0  0  0  0  0  0  0  0
  -23.7999  -15.6984  -11.2923 C   0  0  0  0  0  0  0  0  0  0  0  0
  -23.5875  -14.3225  -11.3803 C   0  0  0  0  0  0  0  0  0  0  0  0
  1  2  1  0
  1  3  1  0
  1  4  1  0
  1  5  1  0
  2  6  1  0
  3  7  1  0
  3  8  1  0
  3  9  1  0
 10  6  1  0
 10 11  1  0
 10 12  1  0
 11 13  1  0
 12 14  1  0
 12 15  1  0
 13 16  1  0
 13 17  1  0
 15 18  1  0
 15 19  1  0
 18 20  1  0
 19 21  1  0
 19 22  1  0
 20 23  1  0
 21 24  4  0
 21 25  4  0
 22 26  1  0
 23 27  1  0
 24 28  4  0
 25 29  4  0
 26 30  1  0
 28 31  1  0
 28 32  4  0
 30 33  2  0
 30 34  1  0
 31 35  1  0
 32 36  1  0
 34 37  4  0
 34 38  4  0
 37 39  4  0
 38 40  4  0
 39 41  4  0
 13 14  1  0
 29 32  4  0
 35 36  1  0
 40 41  4  0
M  END
