
     RDKit          3D

 33 36  0  0  0  0  0  0  0  0999 V2000
  -25.5805  -18.8183  -13.6188 Cl  0  0  0  0  0  0  0  0  0  0  0  0
  -25.0018  -17.3711  -14.3530 C   0  0  0  0  0  0  0  0  0  0  0  0
  -23.7634  -16.8420  -13.9671 C   0  0  0  0  0  0  0  0  0  0  0  0
  -25.7780  -16.7382  -15.3187 C   0  0  0  0  0  0  0  0  0  0  0  0
  -23.2678  -15.6557  -14.5323 C   0  0  0  0  0  0  0  0  0  0  0  0
  -25.3098  -15.5694  -15.9057 C   0  0  0  0  0  0  0  0  0  0  0  0
  -22.0359  -15.0919  -14.1809 N   0  0  0  0  0  0  0  0  0  0  0  0
  -24.0713  -15.0430  -15.5174 C   0  0  0  0  0  0  0  0  0  0  0  0
  -21.8668  -14.7629  -12.7473 C   0  0  0  0  0  0  0  0  0  0  0  0
  -20.7815  -15.4629  -14.8666 C   0  0  0  0  0  0  0  0  0  0  0  0
  -20.3861  -14.8404  -12.3025 C   0  0  0  0  0  0  0  0  0  0  0  0
  -19.9952  -16.5067  -14.0405 C   0  0  0  0  0  0  0  0  0  0  0  0
  -19.7007  -16.1135  -12.6278 N   0  0  0  0  0  0  0  0  0  0  0  0
  -20.0818  -17.2220  -11.7289 C   0  0  0  0  0  0  0  0  0  0  0  0
  -19.8727  -18.6236  -12.3253 C   0  0  0  0  0  0  0  0  0  0  0  0
  -18.8747  -19.4528  -11.5125 C   0  0  0  0  0  0  0  0  0  0  0  0
  -18.8741  -20.8456  -11.8976 N   0  0  0  0  0  0  0  0  0  0  0  0
  -18.8966  -21.2477  -13.2084 N   0  0  0  0  0  0  0  0  0  0  0  0
  -19.1241  -21.9304  -11.0543 C   0  0  0  0  0  0  0  0  0  0  0  0
  -19.1114  -22.5314  -13.1418 C   0  0  0  0  0  0  0  0  0  0  0  0
  -19.2173  -21.9092   -9.8381 O   0  0  0  0  0  0  0  0  0  0  0  0
  -19.2520  -23.0154  -11.8931 N   0  0  0  0  0  0  0  0  0  0  0  0
  -19.2188  -23.3721  -14.3821 C   0  0  0  0  0  0  0  0  0  0  0  0
  -19.5212  -24.3647  -11.4186 C   0  0  0  0  0  0  0  0  0  0  0  0
  -19.3570  -22.5001  -15.6209 C   0  0  0  0  0  0  0  0  0  0  0  0
  -18.6907  -25.4394  -12.1293 C   0  0  0  0  0  0  0  0  0  0  0  0
  -18.9740  -26.7205  -11.5528 O   0  0  0  0  0  0  0  0  0  0  0  0
  -18.3857  -27.7646  -12.2087 C   0  0  0  0  0  0  0  0  0  0  0  0
  -18.8512  -28.0140  -13.5018 C   0  0  0  0  0  0  0  0  0  0  0  0
  -17.4319  -28.6101  -11.6317 C   0  0  0  0  0  0  0  0  0  0  0  0
  -18.3331  -29.0800  -14.2381 C   0  0  0  0  0  0  0  0  0  0  0  0
  -16.9175  -29.6810  -12.3678 C   0  0  0  0  0  0  0  0  0  0  0  0
  -17.3649  -29.9155  -13.6700 C   0  0  0  0  0  0  0  0  0  0  0  0
  1  2  1  0
  2  3  4  0
  2  4  4  0
  3  5  4  0
  4  6  4  0
  5  7  1  0
  5  8  4  0
  7  9  1  0
  7 10  1  0
  9 11  1  0
 10 12  1  0
 11 13  1  0
 13 14  1  0
 14 15  1  0
 15 16  1  0
 16 17  1  0
 17 18  4  0
 17 19  4  0
 18 20  4  0
 19 21  2  0
 19 22  4  0
 20 23  1  0
 22 24  1  0
 23 25  1  0
 24 26  1  0
 26 27  1  0
 27 28  1  0
 28 29  4  0
 28 30  4  0
 29 31  4  0
 30 32  4  0
 31 33  4  0
  6  8  4  0
 12 13  1  0
 20 22  4  0
 32 33  4  0
M  END
