
     RDKit          3D

 53 58  0  0  0  0  0  0  0  0999 V2000
  -27.4728  -28.8114   -6.8708 O   0  0  0  0  0  0  0  0  0  0  0  0
  -27.4286  -29.5830   -7.8221 C   0  0  0  0  0  0  0  0  0  0  0  0
  -27.8830  -29.2363   -9.0855 O   0  0  0  0  0  0  0  0  0  0  0  0
  -26.8774  -30.9382   -7.6667 C   0  0  0  0  0  0  0  0  0  0  0  0
  -27.7796  -30.1233  -10.1803 C   0  0  0  0  0  0  0  0  0  0  0  0
  -26.7731  -31.7893   -8.6899 C   0  0  0  0  0  0  0  0  0  0  0  0
  -27.2058  -31.3917  -10.0265 C   0  0  0  0  0  0  0  0  0  0  0  0
  -28.2677  -29.6407  -11.3978 C   0  0  0  0  0  0  0  0  0  0  0  0
  -27.0807  -32.2277  -11.1553 C   0  0  0  0  0  0  0  0  0  0  0  0
  -28.1639  -30.5173  -12.4686 C   0  0  0  0  0  0  0  0  0  0  0  0
  -26.5472  -33.4961  -11.0452 O   0  0  0  0  0  0  0  0  0  0  0  0
  -27.5986  -31.7875  -12.3943 C   0  0  0  0  0  0  0  0  0  0  0  0
  -28.6065  -30.2641  -13.7311 O   0  0  0  0  0  0  0  0  0  0  0  0
  -25.3797  -33.6570  -11.8678 C   0  0  0  0  0  0  0  0  0  0  0  0
  -27.7182  -32.3283  -13.7056 C   0  0  0  0  0  0  0  0  0  0  0  0
  -28.3314  -31.3674  -14.4748 C   0  0  0  0  0  0  0  0  0  0  0  0
  -24.5427  -34.7886  -11.3493 C   0  0  0  0  0  0  0  0  0  0  0  0
  -23.4401  -35.3200  -11.9132 C   0  0  0  0  0  0  0  0  0  0  0  0
  -22.7734  -34.7891  -13.1603 C   0  0  0  0  0  0  0  0  0  0  0  0
  -22.7488  -36.5005  -11.2772 C   0  0  0  0  0  0  0  0  0  0  0  0
  -23.4861  -35.2044  -14.4569 C   0  0  0  0  0  0  0  0  0  0  0  0
  -22.4957  -35.8530  -15.4547 C   0  0  0  0  0  0  0  0  0  0  0  0
  -21.2125  -35.2013  -15.3564 O   0  0  0  0  0  0  0  0  0  0  0  0
  -22.9554  -35.6652  -16.9457 C   0  0  0  0  0  0  0  0  0  0  0  0
  -19.9830  -35.9558  -15.4744 C   0  0  0  0  0  0  0  0  0  0  0  0
  -22.2349  -34.5642  -17.5240 O   0  0  0  0  0  0  0  0  0  0  0  0
  -22.6224  -36.9072  -17.7827 C   0  0  0  0  0  0  0  0  0  0  0  0
  -24.4443  -35.3534  -17.0937 C   0  0  0  0  0  0  0  0  0  0  0  0
  -18.9605  -35.1214  -16.3259 C   0  0  0  0  0  0  0  0  0  0  0  0
  -20.0984  -37.4009  -15.9794 C   0  0  0  0  0  0  0  0  0  0  0  0
  -19.4549  -36.0142  -14.0247 C   0  0  0  0  0  0  0  0  0  0  0  0
  -19.5886  -33.8906  -16.7244 O   0  0  0  0  0  0  0  0  0  0  0  0
  -18.4158  -35.7829  -17.6058 C   0  0  0  0  0  0  0  0  0  0  0  0
  -18.8759  -35.0663  -18.8827 C   0  0  0  0  0  0  0  0  0  0  0  0
  -17.7570  -34.3487  -19.6156 C   0  0  0  0  0  0  0  0  0  0  0  0
  -16.4923  -34.3643  -19.1445 C   0  0  0  0  0  0  0  0  0  0  0  0
  -18.1900  -33.5819  -20.8371 C   0  0  0  0  0  0  0  0  0  0  0  0
  -15.3163  -33.5640  -19.6433 C   0  0  0  0  0  0  0  0  0  0  0  0
  -15.6893  -32.1953  -19.8463 O   0  0  0  0  0  0  0  0  0  0  0  0
  -14.7422  -31.4604  -20.5376 C   0  0  0  0  0  0  0  0  0  0  0  0
  -15.1490  -30.7903  -21.7120 C   0  0  0  0  0  0  0  0  0  0  0  0
  -13.4288  -31.2526  -20.0533 C   0  0  0  0  0  0  0  0  0  0  0  0
  -14.2178  -30.0341  -22.4318 C   0  0  0  0  0  0  0  0  0  0  0  0
  -16.5250  -30.8276  -22.1978 C   0  0  0  0  0  0  0  0  0  0  0  0
  -12.5579  -30.4816  -20.8198 C   0  0  0  0  0  0  0  0  0  0  0  0
  -12.6862  -31.6202  -18.8932 C   0  0  0  0  0  0  0  0  0  0  0  0
  -14.5838  -29.3823  -23.6336 O   0  0  0  0  0  0  0  0  0  0  0  0
  -12.8918  -29.8722  -22.0256 C   0  0  0  0  0  0  0  0  0  0  0  0
  -16.8621  -30.1631  -23.3046 C   0  0  0  0  0  0  0  0  0  0  0  0
  -11.3387  -30.4027  -20.2173 O   0  0  0  0  0  0  0  0  0  0  0  0
  -11.4265  -31.0887  -19.0488 C   0  0  0  0  0  0  0  0  0  0  0  0
  -15.8818  -29.4257  -24.1172 C   0  0  0  0  0  0  0  0  0  0  0  0
  -16.2124  -28.8894  -25.1677 O   0  0  0  0  0  0  0  0  0  0  0  0
  1  2  2  0
  2  3  4  0
  2  4  4  0
  3  5  4  0
  4  6  4  0
  5  7  4  0
  5  8  4  0
  7  9  4  0
  8 10  4  0
  9 11  1  0
  9 12  4  0
 10 13  4  0
 11 14  1  0
 12 15  4  0
 13 16  4  0
 14 17  1  0
 17 18  2  3
 18 19  1  0
 18 20  1  0
 19 21  1  0
 21 22  1  0
 22 23  1  0
 22 24  1  0
 23 25  1  0
 24 26  1  0
 24 27  1  0
 24 28  1  0
 25 29  1  0
 25 30  1  0
 25 31  1  0
 29 32  1  0
 29 33  1  0
 33 34  1  0
 34 35  1  0
 35 36  2  3
 35 37  1  0
 36 38  1  0
 38 39  1  0
 39 40  1  0
 40 41  4  0
 40 42  4  0
 41 43  4  0
 41 44  4  0
 42 45  4  0
 42 46  4  0
 43 47  4  0
 43 48  4  0
 44 49  4  0
 45 50  4  0
 46 51  4  0
 47 52  4  0
 52 53  2  0
  6  7  4  0
 10 12  4  0
 15 16  4  0
 45 48  4  0
 49 52  4  0
 50 51  4  0
M  END
