
     RDKit          3D

 16 18  0  0  0  0  0  0  0  0999 V2000
  -23.4635  -17.0693  -11.4655 S   0  0  0  0  0  0  0  0  0  0  0  0
  -21.7085  -17.2345  -11.9421 C   0  0  1  0  0  0  0  0  0  0  0  0
  -24.1745  -17.9535  -12.8829 C   0  0  0  0  0  0  0  0  0  0  0  0
  -21.5784  -18.2670  -13.4336 S   0  0  0  0  0  0  0  0  0  0  0  0
  -21.0745  -15.8980  -12.1441 C   0  0  0  0  0  0  0  0  0  0  0  0
  -23.2243  -17.8636  -14.0608 C   0  0  0  0  0  0  0  0  0  0  0  0
  -21.2758  -15.2678  -13.3417 O   0  0  0  0  0  0  0  0  0  0  0  0
  -20.2784  -15.1088  -11.3387 C   0  0  0  0  0  0  0  0  0  0  0  0
  -20.6111  -14.0752  -13.3062 C   0  0  0  0  0  0  0  0  0  0  0  0
  -19.9814  -13.9412  -12.0843 C   0  0  0  0  0  0  0  0  0  0  0  0
  -20.7066  -13.2513  -14.5039 C   0  0  0  0  0  0  0  0  0  0  0  0
  -21.8918  -12.6141  -14.8689 C   0  0  0  0  0  0  0  0  0  0  0  0
  -19.6095  -13.0580  -15.3496 C   0  0  0  0  0  0  0  0  0  0  0  0
  -22.0459  -11.8353  -15.9709 N   0  0  0  0  0  0  0  0  0  0  0  0
  -19.7337  -12.2634  -16.4896 C   0  0  0  0  0  0  0  0  0  0  0  0
  -20.9604  -11.6793  -16.7550 C   0  0  0  0  0  0  0  0  0  0  0  0
  1  2  1  0
  1  3  1  0
  2  4  1  0
  2  5  1  6
  3  6  1  0
  5  7  4  0
  5  8  4  0
  7  9  4  0
  8 10  4  0
  9 11  1  0
 11 12  4  0
 11 13  4  0
 12 14  4  0
 13 15  4  0
 14 16  4  0
  4  6  1  0
  9 10  4  0
 15 16  4  0
M  END
