
     RDKit          3D

 43 45  0  0  0  0  0  0  0  0999 V2000
  -23.4345  -14.5205  -13.2433 Cl  0  0  0  0  0  0  0  0  0  0  0  0
  -26.2924  -15.1669  -15.1814 S   0  0  2  0  0  6  0  0  0  0  0  0
  -25.5291  -14.7715  -16.4198 O   0  0  0  0  0  0  0  0  0  0  0  0
  -27.7283  -14.7964  -15.2800 O   0  0  0  0  0  0  0  0  0  0  0  0
  -25.5037  -14.2540  -13.8261 C   0  0  0  0  0  0  0  0  0  0  0  0
  -26.0793  -16.9055  -14.9385 C   0  0  0  0  0  0  0  0  0  0  0  0
  -24.5760  -15.1102  -13.1302 C   0  0  0  0  0  0  0  0  0  0  0  0
  -24.7198  -16.3954  -13.3012 O   0  0  0  0  0  0  0  0  0  0  0  0
  -23.5048  -14.7475  -12.2445 N   0  0  0  0  0  0  0  0  0  0  0  0
  -23.7521  -15.0654  -10.8509 C   0  0  0  0  0  0  0  0  0  0  0  0
  -22.2972  -14.1809  -12.7507 C   0  0  0  0  0  0  0  0  0  0  0  0
  -22.8345  -15.3545   -9.8512 C   0  0  0  0  0  0  0  0  0  0  0  0
  -25.1140  -15.1134  -10.5895 C   0  0  0  0  0  0  0  0  0  0  0  0
  -21.0886  -15.0617  -12.4839 C   0  0  0  0  0  0  0  0  0  0  0  0
  -22.2039  -13.8418  -14.2040 C   0  0  0  0  0  0  0  0  0  0  0  0
  -21.3883  -15.1527   -9.8236 N   0  0  0  0  0  0  0  0  0  0  0  0
  -23.2449  -15.7076   -8.5741 C   0  0  0  0  0  0  0  0  0  0  0  0
  -25.5610  -15.4659   -9.2992 C   0  0  0  0  0  0  0  0  0  0  0  0
  -21.3443  -16.4264  -12.9851 N   0  0  0  0  0  0  0  0  0  0  0  0
  -20.7236  -15.1560  -11.0871 C   0  0  0  0  0  0  0  0  0  0  0  0
  -20.7159  -14.7420   -8.6834 C   0  0  0  0  0  0  0  0  0  0  0  0
  -24.6026  -15.7406   -8.3697 C   0  0  0  0  0  0  0  0  0  0  0  0
  -26.9597  -15.4520   -9.0504 C   0  0  0  0  0  0  0  0  0  0  0  0
  -21.0008  -16.7705  -14.3139 C   0  0  0  0  0  0  0  0  0  0  0  0
  -19.4344  -15.2777  -10.9006 O   0  0  0  0  0  0  0  0  0  0  0  0
  -21.6409  -13.7174   -7.7465 C   0  0  0  0  0  0  0  0  0  0  0  0
  -28.1419  -15.4329   -8.8332 N   0  0  0  0  0  0  0  0  0  0  0  0
  -20.0428  -16.2113  -14.8997 O   0  0  0  0  0  0  0  0  0  0  0  0
  -21.7579  -17.8112  -15.0573 C   0  0  0  0  0  0  0  0  0  0  0  0
  -21.2982  -14.2028   -6.5894 C   0  0  0  0  0  0  0  0  0  0  0  0
  -22.4569  -13.1078   -8.4723 C   0  0  0  0  0  0  0  0  0  0  0  0
  -23.0332  -17.3937  -15.5492 N   0  0  0  0  0  0  0  0  0  0  0  0
  -22.0110  -18.9291  -14.0272 C   0  0  0  0  0  0  0  0  0  0  0  0
  -20.9608  -14.6846   -5.4361 O   0  0  0  0  0  0  0  0  0  0  0  0
  -22.7558  -13.7203   -5.8400 C   0  0  0  0  0  0  0  0  0  0  0  0
  -23.6689  -12.7185   -7.8070 C   0  0  0  0  0  0  0  0  0  0  0  0
  -22.3802  -12.6124   -9.7447 C   0  0  0  0  0  0  0  0  0  0  0  0
  -23.0878  -16.0435  -16.0294 C   0  0  0  0  0  0  0  0  0  0  0  0
  -21.8008  -15.6498   -4.7400 C   0  0  0  0  0  0  0  0  0  0  0  0
  -23.6760  -13.1037   -6.4691 C   0  0  0  0  0  0  0  0  0  0  0  0
  -24.6329  -11.9631   -8.3969 C   0  0  0  0  0  0  0  0  0  0  0  0
  -23.3234  -11.8398  -10.3757 C   0  0  0  0  0  0  0  0  0  0  0  0
  -24.4640  -11.5086   -9.7075 C   0  0  0  0  0  0  0  0  0  0  0  0
  2  3  2  0
  2  4  2  0
  2  5  1  0
  2  6  1  1
  5  7  1  0
  7  8  2  0
  7  9  1  0
  9 10  1  0
  9 11  1  0
 10 12  4  0
 10 13  4  0
 11 14  1  0
 11 15  1  0
 12 16  1  0
 12 17  4  0
 13 18  4  0
 14 19  1  0
 14 20  1  0
 16 21  1  0
 17 22  4  0
 18 23  1  0
 19 24  1  0
 20 25  2  0
 21 26  1  0
 23 27  3  0
 24 28  2  0
 24 29  1  0
 26 30  4  0
 26 31  4  0
 29 32  1  0
 29 33  1  0
 30 34  1  0
 30 35  4  0
 31 36  4  0
 31 37  4  0
 32 38  1  0
 34 39  1  0
 35 40  4  0
 36 41  4  0
 37 42  4  0
 41 43  4  0
 16 20  1  0
 18 22  4  0
 36 40  4  0
 42 43  4  0
M  END
