
     RDKit          3D

 32 35  0  0  0  0  0  0  0  0999 V2000
  -17.4442  -12.2623  -12.2856 F   0  0  0  0  0  0  0  0  0  0  0  0
  -18.3641  -12.9147  -13.0071 C   0  0  0  0  0  0  0  0  0  0  0  0
  -19.7136  -12.7474  -12.7095 C   0  0  0  0  0  0  0  0  0  0  0  0
  -17.9570  -13.7457  -14.0395 C   0  0  0  0  0  0  0  0  0  0  0  0
  -20.7039  -13.4321  -13.4405 C   0  0  0  0  0  0  0  0  0  0  0  0
  -18.9178  -14.4158  -14.7943 C   0  0  0  0  0  0  0  0  0  0  0  0
  -20.2859  -14.2599  -14.5083 C   0  0  0  0  0  0  0  0  0  0  0  0
  -22.1762  -13.2307  -13.1310 C   0  0  0  0  0  0  0  0  0  0  0  0
  -21.2253  -14.9704  -15.3326 C   0  0  0  0  0  0  0  0  0  0  0  0
  -23.0678  -14.1931  -13.7876 N   0  0  0  0  0  0  0  0  0  0  0  0
  -21.9788  -15.5515  -15.9965 N   0  0  0  0  0  0  0  0  0  0  0  0
  -22.9839  -15.5682  -13.6755 C   0  0  0  0  0  0  0  0  0  0  0  0
  -24.2567  -13.8670  -14.4265 C   0  0  0  0  0  0  0  0  0  0  0  0
  -21.9417  -16.3776  -13.1143 C   0  0  0  0  0  0  0  0  0  0  0  0
  -24.1294  -16.1032  -14.2013 C   0  0  0  0  0  0  0  0  0  0  0  0
  -24.6164  -12.5734  -14.6600 N   0  0  0  0  0  0  0  0  0  0  0  0
  -24.9432  -15.0450  -14.6487 C   0  0  0  0  0  0  0  0  0  0  0  0
  -20.8851  -15.9124  -12.6948 O   0  0  0  0  0  0  0  0  0  0  0  0
  -22.2337  -17.7426  -13.1140 N   0  0  0  0  0  0  0  0  0  0  0  0
  -24.3361  -17.4740  -14.2227 N   0  0  0  0  0  0  0  0  0  0  0  0
  -25.2491  -12.2191  -15.9449 C   0  0  0  0  0  0  0  0  0  0  0  0
  -24.9728  -11.7119  -13.5257 C   0  0  0  0  0  0  0  0  0  0  0  0
  -23.3704  -18.3332  -13.6883 C   0  0  0  0  0  0  0  0  0  0  0  0
  -21.2405  -18.6468  -12.5674 C   0  0  0  0  0  0  0  0  0  0  0  0
  -25.5441  -18.0369  -14.8074 C   0  0  0  0  0  0  0  0  0  0  0  0
  -26.8000  -12.0255  -15.8551 C   0  0  2  0  0  0  0  0  0  0  0  0
  -26.4839  -11.5865  -13.3652 C   0  0  0  0  0  0  0  0  0  0  0  0
  -23.5037  -19.5604  -13.7198 O   0  0  0  0  0  0  0  0  0  0  0  0
  -27.2956  -11.3533  -17.0786 N   0  0  0  0  0  0  0  0  0  0  0  0
  -27.1277  -11.1014  -14.6624 C   0  0  0  0  0  0  0  0  0  0  0  0
  -27.5035  -13.4079  -15.7655 C   0  0  0  0  0  0  0  0  0  0  0  0
  -27.0295  -14.4611  -16.7640 C   0  0  0  0  0  0  0  0  0  0  0  0
  1  2  1  0
  2  3  4  0
  2  4  4  0
  3  5  4  0
  4  6  4  0
  5  7  4  0
  5  8  1  0
  7  9  1  0
  8 10  1  0
  9 11  3  0
 10 12  4  0
 10 13  4  0
 12 14  4  0
 12 15  4  0
 13 16  1  0
 13 17  4  0
 14 18  2  0
 14 19  4  0
 15 20  4  0
 16 21  1  0
 16 22  1  0
 19 23  4  0
 19 24  1  0
 20 25  1  0
 21 26  1  0
 22 27  1  0
 23 28  2  0
 26 29  1  6
 26 30  1  0
 26 31  1  0
 31 32  1  0
  6  7  4  0
 15 17  4  0
 20 23  4  0
 27 30  1  0
M  END
