
     RDKit          3D

 31 33  0  0  0  0  0  0  0  0999 V2000
  -11.9451  -22.0147   -5.7555 Cl  0  0  0  0  0  0  0  0  0  0  0  0
   -9.4577  -27.4778   -5.7476 F   0  0  0  0  0  0  0  0  0  0  0  0
  -10.5353  -26.7116   -5.3428 C   0  0  0  0  0  0  0  0  0  0  0  0
  -10.8906  -25.6316   -6.1065 C   0  0  0  0  0  0  0  0  0  0  0  0
  -11.2760  -27.0276   -4.1885 C   0  0  0  0  0  0  0  0  0  0  0  0
  -11.9746  -24.8299   -5.7634 C   0  0  0  0  0  0  0  0  0  0  0  0
  -12.3650  -26.2479   -3.8284 C   0  0  0  0  0  0  0  0  0  0  0  0
  -12.6715  -25.2016   -4.6161 C   0  0  0  0  0  0  0  0  0  0  0  0
  -12.3528  -23.6733   -6.6186 C   0  0  0  0  0  0  0  0  0  0  0  0
  -14.0590  -24.7213   -4.4927 C   0  0  0  0  0  0  0  0  0  0  0  0
  -11.2599  -22.7136   -6.6394 N   0  0  0  0  0  0  0  0  0  0  0  0
  -15.3133  -24.2676   -4.3781 N   0  0  0  0  0  0  0  0  0  0  0  0
  -10.0583  -22.7936   -7.1128 C   0  0  0  0  0  0  0  0  0  0  0  0
  -11.3546  -21.5654   -5.8800 C   0  0  0  0  0  0  0  0  0  0  0  0
   -9.3646  -23.6716   -8.0232 C   0  0  0  0  0  0  0  0  0  0  0  0
   -9.2473  -21.7570   -6.7178 C   0  0  0  0  0  0  0  0  0  0  0  0
  -12.4108  -20.9570   -5.2506 N   0  0  0  0  0  0  0  0  0  0  0  0
  -10.0721  -20.9797   -5.9470 C   0  0  0  0  0  0  0  0  0  0  0  0
  -10.0860  -24.6188   -8.3959 O   0  0  0  0  0  0  0  0  0  0  0  0
   -8.1219  -23.4330   -8.3657 N   0  0  0  0  0  0  0  0  0  0  0  0
   -7.9992  -21.4753   -7.0216 N   0  0  0  0  0  0  0  0  0  0  0  0
  -13.1273  -19.8048   -5.8540 C   0  0  0  0  0  0  0  0  0  0  0  0
  -12.7966  -21.2041   -3.8894 C   0  0  0  0  0  0  0  0  0  0  0  0
   -7.4193  -22.3360   -7.8668 C   0  0  0  0  0  0  0  0  0  0  0  0
   -7.4389  -24.2880   -9.3218 C   0  0  0  0  0  0  0  0  0  0  0  0
   -7.3150  -20.3050   -6.4822 C   0  0  0  0  0  0  0  0  0  0  0  0
  -12.1631  -18.6691   -5.3925 C   0  0  0  0  0  0  0  0  0  0  0  0
  -12.7981  -19.7867   -3.1963 C   0  0  0  0  0  0  0  0  0  0  0  0
   -6.2518  -22.1834   -8.2257 O   0  0  0  0  0  0  0  0  0  0  0  0
  -12.5289  -17.3712   -5.8049 N   0  0  0  0  0  0  0  0  0  0  0  0
  -11.8694  -18.8400   -3.9188 C   0  0  0  0  0  0  0  0  0  0  0  0
  2  3  1  0
  3  4  4  0
  3  5  4  0
  4  6  4  0
  5  7  4  0
  6  8  4  0
  6  9  1  0
  8 10  1  0
  9 11  1  0
 10 12  3  0
 11 13  4  0
 11 14  4  0
 13 15  4  0
 13 16  4  0
 14 17  1  0
 14 18  4  0
 15 19  2  0
 15 20  4  0
 16 21  4  0
 17 22  1  0
 17 23  1  0
 20 24  4  0
 20 25  1  0
 21 26  1  0
 22 27  1  0
 23 28  1  0
 24 29  2  0
 27 30  1  0
 27 31  1  0
  7  8  4  0
 16 18  4  0
 21 24  4  0
 28 31  1  0
M  END
