
     RDKit          3D

 41 44  0  0  0  0  0  0  0  0999 V2000
  -21.8634  -16.4526  -14.0450 Si  0  0  0  0  0  4  0  0  0  0  0  0
  -20.4051  -16.4018  -14.8659 O   0  0  0  0  0  0  0  0  0  0  0  0
  -22.8034  -18.2411  -14.5355 C   0  0  0  0  0  0  0  0  0  0  0  0
  -23.0372  -15.0590  -14.4758 C   0  0  0  0  0  0  0  0  0  0  0  0
  -21.5801  -16.4710  -12.1845 C   0  0  0  0  0  0  0  0  0  0  0  0
  -19.1788  -16.4040  -14.1427 C   0  0  0  0  0  0  0  0  0  0  0  0
  -23.2221  -18.1883  -16.0189 C   0  0  0  0  0  0  0  0  0  0  0  0
  -21.8315  -19.4126  -14.2985 C   0  0  0  0  0  0  0  0  0  0  0  0
  -24.0537  -18.4008  -13.6468 C   0  0  0  0  0  0  0  0  0  0  0  0
  -18.5519  -15.0207  -14.2455 C   0  0  0  0  0  0  0  0  0  0  0  0
  -17.1237  -15.0552  -14.1430 O   0  0  0  0  0  0  0  0  0  0  0  0
  -18.9509  -13.9349  -13.2507 C   0  0  0  0  0  0  0  0  0  0  0  0
  -16.7691  -13.6789  -13.9610 C   0  0  0  0  0  0  0  0  0  0  0  0
  -17.8961  -12.9570  -13.4336 O   0  0  0  0  0  0  0  0  0  0  0  0
  -19.0379  -14.3041  -11.7420 C   0  0  0  0  0  0  0  0  0  0  0  0
  -15.6032  -13.6059  -12.9853 C   0  0  0  0  0  0  0  0  0  0  0  0
  -16.3803  -13.0568  -15.3007 C   0  0  0  0  0  0  0  0  0  0  0  0
  -18.2739  -15.4950  -11.4868 O   0  0  0  0  0  0  0  0  0  0  0  0
  -20.5147  -14.4898  -11.2365 C   0  0  0  0  0  0  0  0  0  0  0  0
  -17.0977  -15.2684  -10.7118 C   0  0  0  0  0  0  0  0  0  0  0  0
  -21.5194  -13.5993  -11.9811 C   0  0  0  0  0  0  0  0  0  0  0  0
  -20.6503  -14.4312   -9.6956 C   0  0  0  0  0  0  0  0  0  0  0  0
  -17.1474  -16.0897   -9.5499 O   0  0  0  0  0  0  0  0  0  0  0  0
  -22.8917  -13.7431  -11.6927 C   0  0  0  0  0  0  0  0  0  0  0  0
  -21.1285  -12.6659  -12.9711 C   0  0  0  0  0  0  0  0  0  0  0  0
  -21.9838  -14.6925   -9.1620 N   0  0  0  0  0  0  0  0  0  0  0  0
  -16.5878  -15.4268   -8.4264 C   0  0  0  0  0  0  0  0  0  0  0  0
  -23.8001  -12.9669  -12.3810 C   0  0  0  0  0  0  0  0  0  0  0  0
  -22.0741  -11.8885  -13.6516 C   0  0  0  0  0  0  0  0  0  0  0  0
  -22.6437  -15.8911   -9.3464 C   0  0  0  0  0  0  0  0  0  0  0  0
  -25.1502  -12.9938  -12.2227 O   0  0  0  0  0  0  0  0  0  0  0  0
  -23.4016  -12.0635  -13.3339 C   0  0  0  0  0  0  0  0  0  0  0  0
  -22.1104  -16.9067   -9.7758 O   0  0  0  0  0  0  0  0  0  0  0  0
  -24.0941  -15.9050   -9.0065 C   0  0  0  0  0  0  0  0  0  0  0  0
  -25.5555  -12.0141  -13.1993 C   0  0  0  0  0  0  0  0  0  0  0  0
  -24.4492  -11.4054  -13.8977 O   0  0  0  0  0  0  0  0  0  0  0  0
  -24.6666  -16.9181   -8.2264 C   0  0  0  0  0  0  0  0  0  0  0  0
  -24.9046  -14.8813   -9.5136 C   0  0  0  0  0  0  0  0  0  0  0  0
  -26.0333  -16.8901   -7.9383 C   0  0  0  0  0  0  0  0  0  0  0  0
  -26.2695  -14.8569   -9.2227 C   0  0  0  0  0  0  0  0  0  0  0  0
  -26.8316  -15.8589   -8.4327 C   0  0  0  0  0  0  0  0  0  0  0  0
  1  2  1  0
  1  3  1  0
  1  4  1  0
  1  5  1  0
  2  6  1  0
  3  7  1  0
  3  8  1  0
  3  9  1  0
 10  6  1  0
 10 11  1  0
 10 12  1  0
 11 13  1  0
 12 14  1  0
 12 15  1  0
 13 16  1  0
 13 17  1  0
 15 18  1  0
 15 19  1  0
 18 20  1  0
 19 21  1  0
 19 22  1  0
 20 23  1  0
 21 24  4  0
 21 25  4  0
 22 26  1  0
 23 27  1  0
 24 28  4  0
 25 29  4  0
 26 30  1  0
 28 31  1  0
 28 32  4  0
 30 33  2  0
 30 34  1  0
 31 35  1  0
 32 36  1  0
 34 37  4  0
 34 38  4  0
 37 39  4  0
 38 40  4  0
 39 41  4  0
 13 14  1  0
 29 32  4  0
 35 36  1  0
 40 41  4  0
M  END
