
     RDKit          3D

 25 28  0  0  0  0  0  0  0  0999 V2000
  -21.3507  -15.6478  -13.9555 O   0  0  0  0  0  0  0  0  0  0  0  0
  -21.9121  -16.4977  -13.2781 C   0  0  0  0  0  0  0  0  0  0  0  0
  -23.2456  -16.8583  -13.3010 N   0  0  0  0  0  0  0  0  0  0  0  0
  -21.0838  -17.3141  -12.3597 C   0  0  0  0  0  0  0  0  0  0  0  0
  -23.9902  -17.4513  -12.2610 C   0  0  0  0  0  0  0  0  0  0  0  0
  -20.3755  -18.4582  -12.7865 C   0  0  0  0  0  0  0  0  0  0  0  0
  -21.0298  -16.8803  -11.0341 C   0  0  0  0  0  0  0  0  0  0  0  0
  -24.9885  -18.3633  -12.6286 C   0  0  0  0  0  0  0  0  0  0  0  0
  -23.7830  -17.1886  -10.9060 C   0  0  0  0  0  0  0  0  0  0  0  0
  -19.5717  -19.0777  -11.8135 C   0  0  0  0  0  0  0  0  0  0  0  0
  -20.4363  -19.0221  -14.0880 C   0  0  0  0  0  0  0  0  0  0  0  0
  -20.2181  -17.5655  -10.1461 C   0  0  0  0  0  0  0  0  0  0  0  0
  -25.7675  -18.9980  -11.6575 C   0  0  0  0  0  0  0  0  0  0  0  0
  -24.5627  -17.8241   -9.9340 C   0  0  0  0  0  0  0  0  0  0  0  0
  -19.4834  -18.6347  -10.5498 N   0  0  0  0  0  0  0  0  0  0  0  0
  -18.8346  -20.1991  -12.1690 C   0  0  0  0  0  0  0  0  0  0  0  0
  -19.6892  -20.1511  -14.4181 C   0  0  0  0  0  0  0  0  0  0  0  0
  -20.0878  -17.1703   -8.7261 C   0  0  0  0  0  0  0  0  0  0  0  0
  -25.5542  -18.7275  -10.3088 C   0  0  0  0  0  0  0  0  0  0  0  0
  -18.8805  -20.7383  -13.4564 C   0  0  0  0  0  0  0  0  0  0  0  0
  -18.8506  -16.7824   -8.3164 N   0  0  0  0  0  0  0  0  0  0  0  0
  -21.1692  -17.1986   -7.8414 C   0  0  0  0  0  0  0  0  0  0  0  0
  -18.6926  -16.4206   -7.0252 C   0  0  0  0  0  0  0  0  0  0  0  0
  -20.9771  -16.8224   -6.5128 C   0  0  0  0  0  0  0  0  0  0  0  0
  -19.7148  -16.4258   -6.0940 C   0  0  0  0  0  0  0  0  0  0  0  0
  1  2  2  0
  2  3  1  0
  2  4  1  0
  3  5  1  0
  4  6  4  0
  4  7  4  0
  5  8  4  0
  5  9  4  0
  6 10  4  0
  6 11  4  0
  7 12  4  0
  8 13  4  0
  9 14  4  0
 10 15  4  0
 10 16  4  0
 11 17  4  0
 12 18  1  0
 13 19  4  0
 16 20  4  0
 18 21  4  0
 18 22  4  0
 21 23  4  0
 22 24  4  0
 23 25  4  0
 12 15  4  0
 14 19  4  0
 17 20  4  0
 24 25  4  0
M  END
