
     RDKit          3D

 34 37  0  0  0  0  0  0  0  0999 V2000
  -20.3796  -14.3244  -10.4759 O   0  0  0  0  0  0  0  0  0  0  0  0
  -20.3065  -13.8728  -11.6113 C   0  0  0  0  0  0  0  0  0  0  0  0
  -20.8737  -12.6755  -12.0064 N   0  0  0  0  0  0  0  0  0  0  0  0
  -19.6124  -14.6530  -12.6723 C   0  0  0  0  0  0  0  0  0  0  0  0
  -22.0951  -12.6276  -12.7966 C   0  0  0  0  0  0  0  0  0  0  0  0
  -19.8240  -14.2820  -14.0063 C   0  0  0  0  0  0  0  0  0  0  0  0
  -18.7799  -15.7408  -12.3783 C   0  0  0  0  0  0  0  0  0  0  0  0
  -23.0670  -13.8409  -12.7088 C   0  0  2  0  0  0  0  0  0  0  0  0
  -19.1893  -14.9766  -15.0375 C   0  0  0  0  0  0  0  0  0  0  0  0
  -18.1474  -16.4335  -13.4137 C   0  0  0  0  0  0  0  0  0  0  0  0
  -23.4527  -14.3269  -11.3166 C   0  0  0  0  0  0  0  0  0  0  0  0
  -22.8562  -14.9730  -13.7723 C   0  0  1  0  0  0  0  0  0  0  0  0
  -18.3482  -16.0481  -14.7395 C   0  0  0  0  0  0  0  0  0  0  0  0
  -23.2596  -15.6435  -10.8726 C   0  0  0  0  0  0  0  0  0  0  0  0
  -24.0517  -13.3959  -10.4241 C   0  0  0  0  0  0  0  0  0  0  0  0
  -21.9549  -15.9118  -13.1252 O   0  0  0  0  0  0  0  0  0  0  0  0
  -24.1061  -15.7561  -14.2052 C   0  0  2  0  0  0  0  0  0  0  0  0
  -23.6553  -15.9766   -9.5917 C   0  0  0  0  0  0  0  0  0  0  0  0
  -24.4424  -13.7597   -9.1306 C   0  0  0  0  0  0  0  0  0  0  0  0
  -21.5135  -16.9487  -13.9948 C   0  0  0  0  0  0  0  0  0  0  0  0
  -24.4516  -16.8335  -13.2998 O   0  0  0  0  0  0  0  0  0  0  0  0
  -24.1238  -16.4971  -15.5315 C   0  0  2  0  0  0  0  0  0  0  0  0
  -23.5371  -17.2067   -9.0224 O   0  0  0  0  0  0  0  0  0  0  0  0
  -24.2301  -15.0617   -8.7449 C   0  0  0  0  0  0  0  0  0  0  0  0
  -21.9220  -18.2031  -13.4596 O   0  0  0  0  0  0  0  0  0  0  0  0
  -25.4800  -17.5489  -14.0040 C   0  0  2  0  0  0  0  0  0  0  0  0
  -25.3286  -17.2946  -15.4128 O   0  0  0  0  0  0  0  0  0  0  0  0
  -22.9599  -17.4677  -15.7868 C   0  0  0  0  0  0  0  0  0  0  0  0
  -24.0822  -16.9507   -7.7128 C   0  0  0  0  0  0  0  0  0  0  0  0
  -24.5439  -15.5955   -7.5346 O   0  0  0  0  0  0  0  0  0  0  0  0
  -21.3930  -19.2841  -14.2123 C   0  0  0  0  0  0  0  0  0  0  0  0
  -26.8575  -17.0543  -13.5643 C   0  0  0  0  0  0  0  0  0  0  0  0
  -25.3471  -19.0402  -13.7196 C   0  0  0  0  0  0  0  0  0  0  0  0
  -23.4022  -18.7570  -16.1582 O   0  0  0  0  0  0  0  0  0  0  0  0
  1  2  2  0
  2  3  1  0
  2  4  1  0
  3  5  1  0
  4  6  4  0
  4  7  4  0
  8  5  1  1
  6  9  4  0
  7 10  4  0
  8 11  1  0
  8 12  1  0
  9 13  4  0
 11 14  4  0
 11 15  4  0
 12 16  1  1
 12 17  1  0
 14 18  4  0
 15 19  4  0
 16 20  1  0
 17 21  1  1
 17 22  1  0
 18 23  1  0
 18 24  4  0
 20 25  1  0
 21 26  1  0
 22 27  1  0
 22 28  1  1
 23 29  1  0
 24 30  1  0
 25 31  1  0
 26 32  1  1
 26 33  1  0
 28 34  1  0
 10 13  4  0
 19 24  4  0
 26 27  1  0
 29 30  1  0
M  END
