
     RDKit          3D

 26 29  0  0  0  0  0  0  0  0999 V2000
  -18.3796  -16.1693  -12.0077 O   0  0  0  0  0  0  0  0  0  0  0  0
  -19.2159  -15.5083  -12.6163 C   0  0  0  0  0  0  0  0  0  0  0  0
  -19.0281  -14.3652  -13.3702 N   0  0  0  0  0  0  0  0  0  0  0  0
  -20.6324  -15.9340  -12.5176 C   0  0  0  0  0  0  0  0  0  0  0  0
  -20.0193  -13.4760  -13.8392 C   0  0  0  0  0  0  0  0  0  0  0  0
  -21.3763  -16.3390  -13.6436 C   0  0  0  0  0  0  0  0  0  0  0  0
  -21.1939  -15.9192  -11.2448 C   0  0  0  0  0  0  0  0  0  0  0  0
  -19.8029  -12.8684  -15.0845 C   0  0  0  0  0  0  0  0  0  0  0  0
  -21.1760  -13.1574  -13.1219 C   0  0  0  0  0  0  0  0  0  0  0  0
  -22.7155  -16.7091  -13.3982 C   0  0  0  0  0  0  0  0  0  0  0  0
  -20.8722  -16.3967  -14.9662 C   0  0  0  0  0  0  0  0  0  0  0  0
  -22.5111  -16.3114  -11.1120 C   0  0  0  0  0  0  0  0  0  0  0  0
  -20.7228  -11.9469  -15.6034 C   0  0  0  0  0  0  0  0  0  0  0  0
  -22.0926  -12.2301  -13.6359 C   0  0  0  0  0  0  0  0  0  0  0  0
  -23.2609  -16.7117  -12.1715 N   0  0  0  0  0  0  0  0  0  0  0  0
  -23.5118  -17.0794  -14.4681 C   0  0  0  0  0  0  0  0  0  0  0  0
  -21.6922  -16.7675  -16.0228 C   0  0  0  0  0  0  0  0  0  0  0  0
  -23.1817  -16.3103   -9.8108 C   0  0  0  0  0  0  0  0  0  0  0  0
  -21.8672  -11.6024  -14.8711 C   0  0  0  0  0  0  0  0  0  0  0  0
  -23.0199  -17.0999  -15.7739 C   0  0  0  0  0  0  0  0  0  0  0  0
  -23.5474  -17.5279   -9.3286 N   0  0  0  0  0  0  0  0  0  0  0  0
  -23.4159  -15.1280   -9.1271 C   0  0  0  0  0  0  0  0  0  0  0  0
  -22.8722  -10.6322  -15.4295 C   0  0  0  0  0  0  0  0  0  0  0  0
  -24.1368  -17.5175   -8.1280 C   0  0  0  0  0  0  0  0  0  0  0  0
  -24.0507  -15.2433   -7.9164 C   0  0  0  0  0  0  0  0  0  0  0  0
  -24.4276  -16.4201   -7.3942 N   0  0  0  0  0  0  0  0  0  0  0  0
  1  2  2  0
  2  3  1  0
  2  4  1  0
  3  5  1  0
  4  6  4  0
  4  7  4  0
  5  8  4  0
  5  9  4  0
  6 10  4  0
  6 11  4  0
  7 12  4  0
  8 13  4  0
  9 14  4  0
 10 15  4  0
 10 16  4  0
 11 17  4  0
 12 18  1  0
 13 19  4  0
 16 20  4  0
 18 21  4  0
 18 22  4  0
 19 23  1  0
 21 24  4  0
 22 25  4  0
 24 26  4  0
 12 15  4  0
 14 19  4  0
 17 20  4  0
 25 26  4  0
M  END
