
     RDKit          3D

 13 14  0  0  0  0  0  0  0  0999 V2000
  -17.4105  -24.1284  -20.8192 S   0  0  0  0  0  0  0  0  0  0  0  0
  -18.4974  -25.2880  -20.1716 C   0  0  0  0  0  0  0  0  0  0  0  0
  -17.1702  -23.3809  -19.2979 C   0  0  0  0  0  0  0  0  0  0  0  0
  -19.1241  -26.2933  -21.0407 C   0  0  0  0  0  0  0  0  0  0  0  0
  -18.6758  -25.0907  -18.8146 C   0  0  0  0  0  0  0  0  0  0  0  0
  -17.9105  -23.9992  -18.3111 C   0  0  0  0  0  0  0  0  0  0  0  0
  -16.2480  -22.2096  -19.1673 C   0  0  0  0  0  0  0  0  0  0  0  0
  -18.3635  -27.0956  -21.9045 C   0  0  0  0  0  0  0  0  0  0  0  0
  -20.5140  -26.4829  -21.0029 C   0  0  0  0  0  0  0  0  0  0  0  0
  -16.5576  -21.4447  -17.9633 N   0  0  0  0  0  0  0  0  0  0  0  0
  -18.9773  -28.0555  -22.7142 C   0  0  0  0  0  0  0  0  0  0  0  0
  -21.1278  -27.4421  -21.8130 C   0  0  0  0  0  0  0  0  0  0  0  0
  -20.3588  -28.2275  -22.6685 C   0  0  0  0  0  0  0  0  0  0  0  0
  1  2  4  0
  1  3  4  0
  2  4  1  0
  2  5  4  0
  3  6  4  0
  3  7  1  0
  4  8  4  0
  4  9  4  0
  7 10  1  0
  8 11  4  0
  9 12  4  0
 11 13  4  0
  5  6  4  0
 12 13  4  0
M  END
