
     RDKit          3D

 11 11  0  0  0  0  0  0  0  0999 V2000
    8.5833    2.2985  -45.9569 N   0  0  0  0  0  0  0  0  0  0  0  0
    7.4485    2.6980  -45.3316 C   0  0  0  0  0  0  0  0  0  0  0  0
    9.5412    1.7533  -45.1756 C   0  0  0  0  0  0  0  0  0  0  0  0
    7.2303    2.5764  -43.9657 C   0  0  0  0  0  0  0  0  0  0  0  0
    9.4176    1.5892  -43.8042 C   0  0  0  0  0  0  0  0  0  0  0  0
    6.0098    3.0170  -43.3693 C   0  0  0  0  0  0  0  0  0  0  0  0
    8.2392    2.0093  -43.1911 C   0  0  0  0  0  0  0  0  0  0  0  0
    4.9862    3.3812  -42.8564 C   0  0  0  0  0  0  0  0  0  0  0  0
    3.7383    3.8255  -42.2264 C   0  0  0  0  0  0  0  0  0  0  0  0
    3.4483    3.0791  -41.0019 N   0  0  0  0  0  0  0  0  0  0  0  0
    2.0289    3.1040  -40.6672 C   0  0  0  0  0  0  0  0  0  0  0  0
  1  2  4  0
  1  3  4  0
  2  4  4  0
  3  5  4  0
  4  6  1  0
  4  7  4  0
  6  8  3  0
  8  9  1  0
  9 10  1  0
 10 11  1  0
  5  7  4  0
M  END
