
     RDKit          3D

 44 48  0  0  0  0  0  0  0  0999 V2000
  -26.5064  -32.1624   -8.5595 S   0  0  0  0  0  6  0  0  0  0  0  0
  -27.0529  -33.4723   -8.2694 O   0  0  0  0  0  0  0  0  0  0  0  0
  -27.0145  -30.9763   -7.8964 O   0  0  0  0  0  0  0  0  0  0  0  0
  -24.8980  -32.2151   -8.2998 O   0  0  0  0  0  0  0  0  0  0  0  0
  -26.6586  -31.9249  -10.3140 C   0  0  0  0  0  0  0  0  0  0  0  0
  -24.4297  -32.7750   -7.0717 C   0  0  0  0  0  0  0  0  0  0  0  0
  -27.4822  -30.9164  -10.8167 C   0  0  0  0  0  0  0  0  0  0  0  0
  -25.8876  -32.7124  -11.1720 C   0  0  0  0  0  0  0  0  0  0  0  0
  -23.9908  -31.6413   -6.1677 C   0  0  0  0  0  0  0  0  0  0  0  0
  -27.5280  -30.6935  -12.1935 C   0  0  0  0  0  0  0  0  0  0  0  0
  -25.9400  -32.4850  -12.5479 C   0  0  0  0  0  0  0  0  0  0  0  0
  -24.4523  -31.8991   -4.8316 O   0  0  0  0  0  0  0  0  0  0  0  0
  -22.5106  -31.3328   -5.9771 C   0  0  0  0  0  0  0  0  0  0  0  0
  -26.7639  -31.4771  -13.0689 C   0  0  0  0  0  0  0  0  0  0  0  0
  -23.7095  -30.9922   -4.0180 C   0  0  0  0  0  0  0  0  0  0  0  0
  -22.5387  -30.5710   -4.7340 O   0  0  0  0  0  0  0  0  0  0  0  0
  -21.4511  -32.4680   -5.8148 C   0  0  0  0  0  0  0  0  0  0  0  0
  -26.7891  -31.1998  -14.5432 C   0  0  0  0  0  0  0  0  0  0  0  0
  -24.5587  -29.7623   -3.7080 C   0  0  0  0  0  0  0  0  0  0  0  0
  -23.3188  -31.7096   -2.7311 C   0  0  0  0  0  0  0  0  0  0  0  0
  -21.9786  -33.3534   -4.7976 O   0  0  0  0  0  0  0  0  0  0  0  0
  -20.0359  -31.9880   -5.3317 C   0  0  0  0  0  0  0  0  0  0  0  0
  -22.5654  -34.5413   -5.3055 C   0  0  0  0  0  0  0  0  0  0  0  0
  -18.8684  -32.8478   -5.8290 C   0  0  0  0  0  0  0  0  0  0  0  0
  -19.8864  -31.8127   -3.7925 C   0  0  0  0  0  0  0  0  0  0  0  0
  -21.6915  -35.1417   -6.2575 O   0  0  0  0  0  0  0  0  0  0  0  0
  -17.5497  -32.6310   -5.3906 C   0  0  0  0  0  0  0  0  0  0  0  0
  -19.1033  -33.8330   -6.8203 C   0  0  0  0  0  0  0  0  0  0  0  0
  -18.8788  -30.8403   -3.4058 N   0  0  0  0  0  0  0  0  0  0  0  0
  -22.2285  -35.0379   -7.5710 C   0  0  0  0  0  0  0  0  0  0  0  0
  -16.5380  -33.3908   -5.9388 C   0  0  0  0  0  0  0  0  0  0  0  0
  -18.0584  -34.6043   -7.3417 C   0  0  0  0  0  0  0  0  0  0  0  0
  -19.1880  -29.7418   -2.6338 C   0  0  0  0  0  0  0  0  0  0  0  0
  -15.2163  -33.2837   -5.6366 O   0  0  0  0  0  0  0  0  0  0  0  0
  -16.7852  -34.3535   -6.8848 C   0  0  0  0  0  0  0  0  0  0  0  0
  -20.3002  -29.5225   -2.1624 O   0  0  0  0  0  0  0  0  0  0  0  0
  -18.0665  -28.7958   -2.3694 C   0  0  0  0  0  0  0  0  0  0  0  0
  -14.6563  -34.2416   -6.5606 C   0  0  0  0  0  0  0  0  0  0  0  0
  -15.6525  -34.9858   -7.2903 O   0  0  0  0  0  0  0  0  0  0  0  0
  -18.1871  -27.8873   -1.3112 C   0  0  0  0  0  0  0  0  0  0  0  0
  -16.9249  -28.7634   -3.1816 C   0  0  0  0  0  0  0  0  0  0  0  0
  -17.1647  -26.9716   -1.0508 C   0  0  0  0  0  0  0  0  0  0  0  0
  -15.9039  -27.8460   -2.9194 C   0  0  0  0  0  0  0  0  0  0  0  0
  -16.0240  -26.9544   -1.8534 C   0  0  0  0  0  0  0  0  0  0  0  0
  1  2  2  0
  1  3  2  0
  1  4  1  0
  1  5  1  0
  4  6  1  0
  5  7  4  0
  5  8  4  0
  9  6  1  0
  7 10  4  0
  8 11  4  0
  9 12  1  0
  9 13  1  0
 10 14  4  0
 12 15  1  0
 13 16  1  0
 13 17  1  0
 14 18  1  0
 15 19  1  0
 15 20  1  0
 17 21  1  0
 17 22  1  0
 21 23  1  0
 22 24  1  0
 22 25  1  0
 23 26  1  0
 24 27  4  0
 24 28  4  0
 25 29  1  0
 26 30  1  0
 27 31  4  0
 28 32  4  0
 29 33  1  0
 31 34  1  0
 31 35  4  0
 33 36  2  0
 33 37  1  0
 34 38  1  0
 35 39  1  0
 37 40  4  0
 37 41  4  0
 40 42  4  0
 41 43  4  0
 42 44  4  0
 11 14  4  0
 15 16  1  0
 32 35  4  0
 38 39  1  0
 43 44  4  0
M  END
