
     RDKit          3D

 15 16  0  0  0  0  0  0  0  0999 V2000
   -7.4749  -26.5876  -18.0737 O   0  0  0  0  0  0  0  0  0  0  0  0
   -6.8423  -27.5997  -17.7953 C   0  0  0  0  0  0  0  0  0  0  0  0
   -6.6001  -27.9886  -16.4859 O   0  0  0  0  0  0  0  0  0  0  0  0
   -6.3005  -28.4640  -18.8559 C   0  0  0  0  0  0  0  0  0  0  0  0
   -5.8662  -29.1561  -16.1913 C   0  0  0  0  0  0  0  0  0  0  0  0
   -5.6017  -29.5712  -18.5893 C   0  0  0  0  0  0  0  0  0  0  0  0
   -5.3515  -29.9647  -17.2063 C   0  0  0  0  0  0  0  0  0  0  0  0
   -5.6852  -29.4594  -14.8442 C   0  0  0  0  0  0  0  0  0  0  0  0
   -4.6167  -31.1081  -16.8520 C   0  0  0  0  0  0  0  0  0  0  0  0
   -4.9788  -30.6072  -14.4991 C   0  0  0  0  0  0  0  0  0  0  0  0
   -4.1462  -31.8926  -17.8751 O   0  0  0  0  0  0  0  0  0  0  0  0
   -4.4523  -31.4324  -15.4982 C   0  0  0  0  0  0  0  0  0  0  0  0
   -5.1094  -32.6736  -18.5861 C   0  0  0  0  0  0  0  0  0  0  0  0
   -4.4942  -33.8584  -19.2818 C   0  0  0  0  0  0  0  0  0  0  0  0
   -4.6575  -34.2103  -20.5648 C   0  0  0  0  0  0  0  0  0  0  0  0
  1  2  2  0
  2  3  4  0
  2  4  4  0
  3  5  4  0
  4  6  4  0
  5  7  4  0
  5  8  4  0
  7  9  4  0
  8 10  4  0
  9 11  1  0
  9 12  4  0
 11 13  1  0
 13 14  1  0
 14 15  2  0
  6  7  4  0
 10 12  4  0
M  END
