
     RDKit          3D

 28 32  0  0  0  0  0  0  0  0999 V2000
  -28.7384  -28.1025   -5.6748 O   0  0  0  0  0  0  0  0  0  0  0  0
  -28.3043  -29.1515   -6.1035 C   0  0  0  0  0  0  0  0  0  0  0  0
  -28.9402  -29.9620   -6.9980 O   0  0  0  0  0  0  0  0  0  0  0  0
  -27.0584  -29.8216   -5.7597 C   0  0  0  0  0  0  0  0  0  0  0  0
  -28.1648  -31.1367   -7.3692 C   0  0  0  0  0  0  0  0  0  0  0  0
  -26.0796  -29.4381   -4.8544 C   0  0  0  0  0  0  0  0  0  0  0  0
  -26.9749  -30.9964   -6.4818 C   0  0  0  0  0  0  0  0  0  0  0  0
  -27.8714  -31.1118   -8.9133 C   0  0  0  0  0  0  0  0  0  0  0  0
  -26.1593  -28.2337   -4.2107 O   0  0  0  0  0  0  0  0  0  0  0  0
  -24.9604  -30.2689   -4.6817 C   0  0  0  0  0  0  0  0  0  0  0  0
  -25.8944  -31.8452   -6.2969 C   0  0  0  0  0  0  0  0  0  0  0  0
  -27.6777  -32.4800   -9.4716 N   0  0  0  0  0  0  0  0  0  0  0  0
  -28.9518  -30.3158   -9.6598 C   0  0  0  0  0  0  0  0  0  0  0  0
  -25.7080  -27.1818   -5.0628 C   0  0  0  0  0  0  0  0  0  0  0  0
  -24.0136  -29.8295   -3.7930 O   0  0  0  0  0  0  0  0  0  0  0  0
  -24.8853  -31.4766   -5.3969 C   0  0  0  0  0  0  0  0  0  0  0  0
  -28.9626  -33.1711   -9.6468 C   0  0  0  0  0  0  0  0  0  0  0  0
  -26.8845  -32.4583  -10.7010 C   0  0  0  0  0  0  0  0  0  0  0  0
  -29.9666  -30.9723  -10.4077 C   0  0  0  0  0  0  0  0  0  0  0  0
  -28.9471  -28.9085   -9.5947 C   0  0  0  0  0  0  0  0  0  0  0  0
  -22.9490  -30.7170   -3.4796 C   0  0  0  0  0  0  0  0  0  0  0  0
  -29.9416  -32.4687  -10.5903 C   0  0  0  0  0  0  0  0  0  0  0  0
  -30.9635  -30.2280  -11.0631 C   0  0  0  0  0  0  0  0  0  0  0  0
  -29.9429  -28.2141  -10.2477 C   0  0  0  0  0  0  0  0  0  0  0  0
  -30.9257  -28.8558  -10.9582 C   0  0  0  0  0  0  0  0  0  0  0  0
  -30.0791  -26.8616  -10.2784 O   0  0  0  0  0  0  0  0  0  0  0  0
  -31.8060  -27.9902  -11.5279 O   0  0  0  0  0  0  0  0  0  0  0  0
  -31.2687  -26.7272  -11.0820 C   0  0  0  0  0  0  0  0  0  0  0  0
  1  2  2  0
  2  3  1  0
  2  4  1  0
  5  3  1  0
  4  6  4  0
  4  7  4  0
  5  8  1  0
  6  9  1  0
  6 10  4  0
  7 11  4  0
  8 12  1  0
  8 13  1  0
  9 14  1  0
 10 15  1  0
 10 16  4  0
 12 17  1  0
 12 18  1  0
 13 19  4  0
 13 20  4  0
 15 21  1  0
 17 22  1  0
 19 23  4  0
 20 24  4  0
 23 25  4  0
 24 26  1  0
 25 27  1  0
 26 28  1  0
  5  7  1  0
 11 16  4  0
 19 22  1  0
 24 25  4  0
 27 28  1  0
M  END
