
     RDKit          3D

 25 28  0  0  0  0  0  0  0  0999 V2000
  -19.9909  -19.1645  -14.1325 O   0  0  0  0  0  0  0  0  0  0  0  0
  -21.0026  -18.5063  -14.3256 C   0  0  0  0  0  0  0  0  0  0  0  0
  -21.1035  -17.1598  -14.6183 N   0  0  0  0  0  0  0  0  0  0  0  0
  -22.3136  -19.1896  -14.2561 C   0  0  0  0  0  0  0  0  0  0  0  0
  -20.3812  -16.1014  -14.0298 C   0  0  0  0  0  0  0  0  0  0  0  0
  -23.4630  -18.5181  -13.7962 C   0  0  0  0  0  0  0  0  0  0  0  0
  -22.3643  -20.5229  -14.6685 C   0  0  0  0  0  0  0  0  0  0  0  0
  -20.7062  -15.5243  -12.8013 C   0  0  0  0  0  0  0  0  0  0  0  0
  -19.2778  -15.6074  -14.7384 C   0  0  0  0  0  0  0  0  0  0  0  0
  -24.6438  -19.2784  -13.7626 C   0  0  0  0  0  0  0  0  0  0  0  0
  -23.4971  -17.1670  -13.3681 C   0  0  0  0  0  0  0  0  0  0  0  0
  -23.5757  -21.1891  -14.5988 C   0  0  0  0  0  0  0  0  0  0  0  0
  -19.9400  -14.4729  -12.2875 C   0  0  0  0  0  0  0  0  0  0  0  0
  -18.5121  -14.5571  -14.2249 C   0  0  0  0  0  0  0  0  0  0  0  0
  -24.6929  -20.5666  -14.1460 N   0  0  0  0  0  0  0  0  0  0  0  0
  -25.8106  -18.6777  -13.3083 C   0  0  0  0  0  0  0  0  0  0  0  0
  -24.6813  -16.5876  -12.9178 C   0  0  0  0  0  0  0  0  0  0  0  0
  -23.7492  -22.5996  -15.0103 C   0  0  0  0  0  0  0  0  0  0  0  0
  -18.8439  -13.9898  -12.9979 C   0  0  0  0  0  0  0  0  0  0  0  0
  -25.8426  -17.3461  -12.8870 C   0  0  0  0  0  0  0  0  0  0  0  0
  -23.8618  -23.6184  -14.0446 C   0  0  0  0  0  0  0  0  0  0  0  0
  -23.8021  -22.9894  -16.3622 C   0  0  0  0  0  0  0  0  0  0  0  0
  -24.0319  -24.9579  -14.4077 C   0  0  0  0  0  0  0  0  0  0  0  0
  -23.9720  -24.3293  -16.7290 C   0  0  0  0  0  0  0  0  0  0  0  0
  -24.0891  -25.3123  -15.7513 C   0  0  0  0  0  0  0  0  0  0  0  0
  1  2  2  0
  2  3  1  0
  2  4  1  0
  3  5  1  0
  4  6  4  0
  4  7  4  0
  5  8  4  0
  5  9  4  0
  6 10  4  0
  6 11  4  0
  7 12  4  0
  8 13  4  0
  9 14  4  0
 10 15  4  0
 10 16  4  0
 11 17  4  0
 12 18  1  0
 13 19  4  0
 16 20  4  0
 18 21  4  0
 18 22  4  0
 21 23  4  0
 22 24  4  0
 23 25  4  0
 12 15  4  0
 14 19  4  0
 17 20  4  0
 24 25  4  0
M  END
