
     RDKit          3D

 38 41  0  0  0  0  0  0  0  0999 V2000
  -23.1799  -21.4908  -14.6714 Si  0  0  0  0  0  4  0  0  0  0  0  0
  -22.7839  -22.2946  -13.2512 O   0  0  0  0  0  0  0  0  0  0  0  0
  -23.1010  -19.4554  -14.2824 C   0  0  0  0  0  0  0  0  0  0  0  0
  -21.9908  -21.8251  -16.0864 C   0  0  0  0  0  0  0  0  0  0  0  0
  -24.9334  -21.8885  -15.2143 C   0  0  0  0  0  0  0  0  0  0  0  0
  -21.4181  -22.3929  -12.8546 C   0  0  0  0  0  0  0  0  0  0  0  0
  -21.7806  -19.1203  -13.5607 C   0  0  0  0  0  0  0  0  0  0  0  0
  -23.1775  -18.6903  -15.6187 C   0  0  0  0  0  0  0  0  0  0  0  0
  -24.3013  -19.0742  -13.3912 C   0  0  0  0  0  0  0  0  0  0  0  0
  -20.6387  -23.1905  -13.9103 C   0  0  0  0  0  0  0  0  0  0  0  0
  -20.3882  -22.3720  -15.0590 O   0  0  0  0  0  0  0  0  0  0  0  0
  -19.2546  -23.5940  -13.4148 C   0  0  0  0  0  0  0  0  0  0  0  0
  -19.0687  -21.8424  -14.8928 C   0  0  0  0  0  0  0  0  0  0  0  0
  -18.4284  -22.4857  -13.7868 O   0  0  0  0  0  0  0  0  0  0  0  0
  -18.7411  -24.9238  -14.0232 C   0  0  0  0  0  0  0  0  0  0  0  0
  -19.1428  -20.3434  -14.6159 C   0  0  0  0  0  0  0  0  0  0  0  0
  -18.2847  -22.0850  -16.1789 C   0  0  0  0  0  0  0  0  0  0  0  0
  -19.2114  -25.0392  -15.3855 O   0  0  0  0  0  0  0  0  0  0  0  0
  -19.1859  -26.2183  -13.2681 C   0  0  0  0  0  0  0  0  0  0  0  0
  -18.9236  -27.4934  -14.0638 C   0  0  0  0  0  0  0  0  0  0  0  0
  -18.6919  -26.2795  -11.8054 C   0  0  0  0  0  0  0  0  0  0  0  0
  -18.1446  -28.5494  -13.5600 C   0  0  0  0  0  0  0  0  0  0  0  0
  -19.4712  -27.6100  -15.3670 C   0  0  0  0  0  0  0  0  0  0  0  0
  -18.9515  -27.5703  -11.1953 N   0  0  0  0  0  0  0  0  0  0  0  0
  -17.9350  -29.6538  -14.3608 C   0  0  0  0  0  0  0  0  0  0  0  0
  -19.2467  -28.7454  -16.1540 C   0  0  0  0  0  0  0  0  0  0  0  0
  -18.1094  -28.6426  -11.3949 C   0  0  0  0  0  0  0  0  0  0  0  0
  -17.1911  -30.7433  -14.0279 O   0  0  0  0  0  0  0  0  0  0  0  0
  -18.4696  -29.7489  -15.6222 C   0  0  0  0  0  0  0  0  0  0  0  0
  -17.1842  -28.6263  -12.1992 O   0  0  0  0  0  0  0  0  0  0  0  0
  -18.3544  -29.8499  -10.5529 C   0  0  0  0  0  0  0  0  0  0  0  0
  -17.3122  -31.5305  -15.2303 C   0  0  0  0  0  0  0  0  0  0  0  0
  -18.1320  -30.9103  -16.2437 O   0  0  0  0  0  0  0  0  0  0  0  0
  -17.2541  -30.6351  -10.1857 C   0  0  0  0  0  0  0  0  0  0  0  0
  -19.6385  -30.2265  -10.1358 C   0  0  0  0  0  0  0  0  0  0  0  0
  -17.4311  -31.7666   -9.3872 C   0  0  0  0  0  0  0  0  0  0  0  0
  -19.8121  -31.3606   -9.3384 C   0  0  0  0  0  0  0  0  0  0  0  0
  -18.7089  -32.1264   -8.9620 C   0  0  0  0  0  0  0  0  0  0  0  0
  1  2  1  0
  1  3  1  0
  1  4  1  0
  1  5  1  0
  2  6  1  0
  3  7  1  0
  3  8  1  0
  3  9  1  0
 10  6  1  0
 10 11  1  0
 10 12  1  0
 11 13  1  0
 12 14  1  0
 12 15  1  0
 13 16  1  0
 13 17  1  0
 15 18  1  0
 15 19  1  0
 19 20  1  0
 19 21  1  0
 20 22  4  0
 20 23  4  0
 21 24  1  0
 22 25  4  0
 23 26  4  0
 24 27  1  0
 25 28  1  0
 25 29  4  0
 27 30  2  0
 27 31  1  0
 28 32  1  0
 29 33  1  0
 31 34  4  0
 31 35  4  0
 34 36  4  0
 35 37  4  0
 36 38  4  0
 13 14  1  0
 26 29  4  0
 32 33  1  0
 37 38  4  0
M  END
