
     RDKit          3D

 12 12  0  0  0  0  0  0  0  0999 V2000
  -20.6973  -29.5277   -5.7863 O   0  0  0  0  0  0  0  0  0  0  0  0
  -19.6665  -30.1598   -6.0191 C   0  0  0  0  0  0  0  0  0  0  0  0
  -19.3847  -30.6749   -7.3530 C   0  0  0  0  0  0  0  0  0  0  0  0
  -18.6873  -30.4513   -4.8988 C   0  0  0  0  0  0  0  0  0  0  0  0
  -20.3299  -31.2552   -8.1759 C   0  0  0  0  0  0  0  0  0  0  0  0
  -18.1685  -30.7179   -8.0950 C   0  0  0  0  0  0  0  0  0  0  0  0
  -17.8788  -29.1969   -4.5678 C   0  0  0  0  0  0  0  0  0  0  0  0
  -19.7786  -31.6429   -9.3533 O   0  0  0  0  0  0  0  0  0  0  0  0
  -18.4643  -31.3132   -9.2993 C   0  0  0  0  0  0  0  0  0  0  0  0
  -17.0047  -28.6977   -5.7212 C   0  0  0  0  0  0  0  0  0  0  0  0
  -17.8198  -28.1525   -6.7519 O   0  0  0  0  0  0  0  0  0  0  0  0
  -16.1353  -29.7896   -6.3286 C   0  0  0  0  0  0  0  0  0  0  0  0
  1  2  2  0
  2  3  1  0
  2  4  1  0
  3  5  4  0
  3  6  4  0
  4  7  1  0
  5  8  4  0
  6  9  4  0
  7 10  1  0
 10 11  1  0
 10 12  1  0
  8  9  4  0
M  END
