
     RDKit          3D

 26 29  0  0  0  0  0  0  0  0999 V2000
  -20.1924  -18.1279  -13.3355 O   0  0  0  0  0  0  0  0  0  0  0  0
  -19.7570  -19.2618  -13.4728 C   0  0  0  0  0  0  0  0  0  0  0  0
  -19.1746  -19.8258  -14.5911 N   0  0  0  0  0  0  0  0  0  0  0  0
  -19.8392  -20.1900  -12.3235 C   0  0  0  0  0  0  0  0  0  0  0  0
  -19.1114  -21.1950  -14.9221 C   0  0  0  0  0  0  0  0  0  0  0  0
  -19.1091  -19.9555  -11.1422 C   0  0  0  0  0  0  0  0  0  0  0  0
  -20.6701  -21.3040  -12.4582 C   0  0  0  0  0  0  0  0  0  0  0  0
  -19.2601  -22.1141  -13.8765 C   0  0  0  0  0  0  0  0  0  0  0  0
  -18.9213  -21.6759  -16.2172 C   0  0  0  0  0  0  0  0  0  0  0  0
  -19.2499  -20.9229  -10.1330 C   0  0  0  0  0  0  0  0  0  0  0  0
  -18.2559  -18.8450  -10.9231 C   0  0  0  0  0  0  0  0  0  0  0  0
  -20.7537  -22.1938  -11.4012 C   0  0  0  0  0  0  0  0  0  0  0  0
  -19.2127  -23.4902  -14.1216 C   0  0  0  0  0  0  0  0  0  0  0  0
  -18.8736  -23.0531  -16.4636 C   0  0  0  0  0  0  0  0  0  0  0  0
  -20.0345  -22.0076  -10.2667 N   0  0  0  0  0  0  0  0  0  0  0  0
  -18.5444  -20.7572   -8.9482 C   0  0  0  0  0  0  0  0  0  0  0  0
  -17.5603  -18.7016   -9.7246 C   0  0  0  0  0  0  0  0  0  0  0  0
  -21.5995  -23.4041  -11.4281 C   0  0  0  0  0  0  0  0  0  0  0  0
  -19.0058  -23.9710  -15.4172 C   0  0  0  0  0  0  0  0  0  0  0  0
  -17.7045  -19.6617   -8.7336 C   0  0  0  0  0  0  0  0  0  0  0  0
  -21.4737  -24.4308  -10.4812 C   0  0  0  0  0  0  0  0  0  0  0  0
  -22.5689  -23.5768  -12.4274 C   0  0  0  0  0  0  0  0  0  0  0  0
  -18.9872  -25.4452  -15.6911 C   0  0  0  0  0  0  0  0  0  0  0  0
  -22.3065  -25.5380  -10.5630 C   0  0  0  0  0  0  0  0  0  0  0  0
  -23.3560  -24.7176  -12.4275 C   0  0  0  0  0  0  0  0  0  0  0  0
  -23.2505  -25.6996  -11.5106 N   0  0  0  0  0  0  0  0  0  0  0  0
  1  2  2  0
  2  3  1  0
  2  4  1  0
  3  5  1  0
  4  6  4  0
  4  7  4  0
  5  8  4  0
  5  9  4  0
  6 10  4  0
  6 11  4  0
  7 12  4  0
  8 13  4  0
  9 14  4  0
 10 15  4  0
 10 16  4  0
 11 17  4  0
 12 18  1  0
 13 19  4  0
 16 20  4  0
 18 21  4  0
 18 22  4  0
 19 23  1  0
 21 24  4  0
 22 25  4  0
 24 26  4  0
 12 15  4  0
 14 19  4  0
 17 20  4  0
 25 26  4  0
M  END
