
     RDKit          3D

 10 10  0  0  0  0  0  0  0  0999 V2000
  -23.8468  -23.9388  -17.3332 N   0  0  0  0  0  0  0  0  0  0  0  0
  -24.5568  -25.0585  -17.0495 C   0  0  0  0  0  0  0  0  0  0  0  0
  -23.5319  -23.1435  -16.2877 C   0  0  0  0  0  0  0  0  0  0  0  0
  -24.9650  -25.4155  -15.7709 C   0  0  0  0  0  0  0  0  0  0  0  0
  -23.8929  -23.4143  -14.9766 C   0  0  0  0  0  0  0  0  0  0  0  0
  -25.7135  -26.6104  -15.5437 C   0  0  0  0  0  0  0  0  0  0  0  0
  -24.6231  -24.5722  -14.7166 C   0  0  0  0  0  0  0  0  0  0  0  0
  -26.3437  -27.6172  -15.3624 C   0  0  0  0  0  0  0  0  0  0  0  0
  -27.1109  -28.8442  -15.1463 C   0  0  0  0  0  0  0  0  0  0  0  0
  -27.8642  -29.1743  -16.3460 N   0  0  0  0  0  0  0  0  0  0  0  0
  1  2  4  0
  1  3  4  0
  2  4  4  0
  3  5  4  0
  4  6  1  0
  4  7  4  0
  6  8  3  0
  8  9  1  0
  9 10  1  0
  5  7  4  0
M  END
