
     RDKit          3D

 40 42  0  0  0  0  0  0  0  0999 V2000
  -20.9771  -33.2620   -5.9337 Si  0  0  0  0  0  4  0  0  0  0  0  0
  -22.0795  -33.4937   -7.1751 O   0  0  0  0  0  0  0  0  0  0  0  0
  -21.0624  -31.2861   -5.2940 C   0  0  0  0  0  0  0  0  0  0  0  0
  -21.2982  -34.3518   -4.4387 C   0  0  0  0  0  0  0  0  0  0  0  0
  -19.2220  -33.5609   -6.5524 C   0  0  0  0  0  0  0  0  0  0  0  0
  -23.1710  -32.5755   -7.3252 C   0  0  0  0  0  0  0  0  0  0  0  0
  -22.5281  -30.8940   -5.0149 C   0  0  0  0  0  0  0  0  0  0  0  0
  -20.4862  -30.3849   -6.4064 C   0  0  0  0  0  0  0  0  0  0  0  0
  -20.2301  -31.1353   -4.0042 C   0  0  0  0  0  0  0  0  0  0  0  0
  -24.3782  -33.3208   -7.8840 C   0  0  0  0  0  0  0  0  0  0  0  0
  -24.9614  -32.5947   -8.9770 O   0  0  0  0  0  0  0  0  0  0  0  0
  -25.5645  -33.5781   -6.9567 C   0  0  0  0  0  0  0  0  0  0  0  0
  -26.2763  -33.1306   -9.1036 C   0  0  0  0  0  0  0  0  0  0  0  0
  -26.6890  -33.6914   -7.8496 O   0  0  0  0  0  0  0  0  0  0  0  0
  -25.8579  -32.5411   -5.8351 C   0  0  0  0  0  0  0  0  0  0  0  0
  -27.2220  -32.0090   -9.5016 C   0  0  0  0  0  0  0  0  0  0  0  0
  -26.2898  -34.2385  -10.1546 C   0  0  0  0  0  0  0  0  0  0  0  0
  -26.8711  -33.1016   -4.9686 O   0  0  0  0  0  0  0  0  0  0  0  0
  -26.3694  -31.1560   -6.3738 C   0  0  0  0  0  0  0  0  0  0  0  0
  -26.3692  -33.5797   -3.7218 C   0  0  0  0  0  0  0  0  0  0  0  0
  -25.9671  -29.9762   -5.4804 C   0  0  0  0  0  0  0  0  0  0  0  0
  -27.8697  -31.1688   -6.7572 C   0  0  0  0  0  0  0  0  0  0  0  0
  -25.0135  -33.9779   -3.8421 O   0  0  0  0  0  0  0  0  0  0  0  0
  -25.2294  -30.1479   -4.2949 C   0  0  0  0  0  0  0  0  0  0  0  0
  -26.3180  -28.6618   -5.8819 C   0  0  0  0  0  0  0  0  0  0  0  0
  -28.3832  -29.8238   -6.9694 N   0  0  0  0  0  0  0  0  0  0  0  0
  -24.1409  -33.0878   -3.1644 C   0  0  0  0  0  0  0  0  0  0  0  0
  -24.8848  -29.0266   -3.5667 C   0  0  0  0  0  0  0  0  0  0  0  0
  -25.9570  -27.5442   -5.1208 C   0  0  0  0  0  0  0  0  0  0  0  0
  -28.4172  -29.1980   -8.1768 C   0  0  0  0  0  0  0  0  0  0  0  0
  -24.1689  -29.0215   -2.4093 O   0  0  0  0  0  0  0  0  0  0  0  0
  -25.2396  -27.7611   -3.9674 C   0  0  0  0  0  0  0  0  0  0  0  0
  -27.7973  -28.1901   -8.4662 O   0  0  0  0  0  0  0  0  0  0  0  0
  -29.2524  -29.8822   -8.9897 O   0  0  0  0  0  0  0  0  0  0  0  0
  -24.1072  -27.6071   -2.1345 C   0  0  0  0  0  0  0  0  0  0  0  0
  -24.7918  -26.8005   -3.1146 O   0  0  0  0  0  0  0  0  0  0  0  0
  -29.5468  -29.3931  -10.3246 C   0  0  0  0  0  0  0  0  0  0  0  0
  -30.5574  -30.2964  -11.0404 C   0  0  0  0  0  0  0  0  0  0  0  0
  -28.2069  -29.4720  -11.0728 C   0  0  0  0  0  0  0  0  0  0  0  0
  -30.0040  -27.9303  -10.2926 C   0  0  0  0  0  0  0  0  0  0  0  0
  1  2  1  0
  1  3  1  0
  1  4  1  0
  1  5  1  0
  2  6  1  0
  3  7  1  0
  3  8  1  0
  3  9  1  0
 10  6  1  0
 10 11  1  0
 10 12  1  0
 11 13  1  0
 12 14  1  0
 12 15  1  0
 13 16  1  0
 13 17  1  0
 15 18  1  0
 15 19  1  0
 18 20  1  0
 19 21  1  0
 19 22  1  0
 20 23  1  0
 21 24  4  0
 21 25  4  0
 22 26  1  0
 23 27  1  0
 24 28  4  0
 25 29  4  0
 26 30  1  0
 28 31  1  0
 28 32  4  0
 30 33  2  0
 30 34  1  0
 31 35  1  0
 32 36  1  0
 34 37  1  0
 37 38  1  0
 37 39  1  0
 37 40  1  0
 13 14  1  0
 29 32  4  0
 35 36  1  0
M  END
