
     RDKit          3D

 23 24  0  0  0  0  0  0  0  0999 V2000
  -23.8806  -16.9426  -14.4873 O   0  0  0  0  0  0  0  0  0  0  0  0
  -23.3642  -16.9586  -15.7525 C   0  0  0  0  0  0  0  0  0  0  0  0
  -22.1144  -16.4226  -16.1050 C   0  0  0  0  0  0  0  0  0  0  0  0
  -24.1929  -17.5811  -16.6934 C   0  0  0  0  0  0  0  0  0  0  0  0
  -21.7299  -16.5824  -17.4526 C   0  0  0  0  0  0  0  0  0  0  0  0
  -21.1904  -15.6571  -15.1514 C   0  0  0  0  0  0  0  0  0  0  0  0
  -23.7911  -17.7288  -18.0224 C   0  0  0  0  0  0  0  0  0  0  0  0
  -20.5107  -16.1085  -17.8649 O   0  0  0  0  0  0  0  0  0  0  0  0
  -22.5479  -17.2160  -18.3968 C   0  0  0  0  0  0  0  0  0  0  0  0
  -20.1636  -14.8190  -15.8934 C   0  0  0  0  0  0  0  0  0  0  0  0
  -20.5516  -16.4964  -13.9893 C   0  0  0  0  0  0  0  0  0  0  0  0
  -24.6868  -18.3972  -19.0326 C   0  0  0  0  0  0  0  0  0  0  0  0
  -18.8315  -14.9390  -15.7457 C   0  0  0  0  0  0  0  0  0  0  0  0
  -21.4922  -17.5097  -13.3343 C   0  0  0  0  0  0  0  0  0  0  0  0
  -19.1745  -17.0686  -14.3760 C   0  0  0  0  0  0  0  0  0  0  0  0
  -26.1346  -18.6403  -18.5835 C   0  0  0  0  0  0  0  0  0  0  0  0
  -18.2111  -15.9691  -14.8348 C   0  0  0  0  0  0  0  0  0  0  0  0
  -17.8694  -14.0404  -16.4692 C   0  0  0  0  0  0  0  0  0  0  0  0
  -21.7285  -18.7424  -13.8158 C   0  0  0  0  0  0  0  0  0  0  0  0
  -22.1547  -17.0489  -12.0622 C   0  0  0  0  0  0  0  0  0  0  0  0
  -26.3121  -19.7397  -17.5281 C   0  0  0  0  0  0  0  0  0  0  0  0
  -25.4810  -21.0108  -17.7107 C   0  0  0  0  0  0  0  0  0  0  0  0
  -25.4473  -21.5210  -19.1428 C   0  0  0  0  0  0  0  0  0  0  0  0
  1  2  1  0
  2  3  4  0
  2  4  4  0
  3  5  4  0
  6  3  1  0
  4  7  4  0
  5  8  1  0
  5  9  4  0
  6 10  1  0
  6 11  1  0
  7 12  1  0
 10 13  2  0
 11 14  1  0
 11 15  1  0
 12 16  1  0
 13 17  1  0
 13 18  1  0
 14 19  2  0
 14 20  1  0
 16 21  1  0
 21 22  1  0
 22 23  1  0
  7  9  4  0
 15 17  1  0
M  END
