
     RDKit          3D

 42 44  0  0  0  0  0  0  0  0999 V2000
  -20.9764  -21.1154  -26.6123 Cl  0  0  0  0  0  0  0  0  0  0  0  0
  -26.5180  -22.0100  -23.0237 S   0  0  0  0  0  6  0  0  0  0  0  0
  -26.7858  -21.3395  -21.7215 O   0  0  0  0  0  0  0  0  0  0  0  0
  -26.6540  -21.0205  -24.1691 O   0  0  0  0  0  0  0  0  0  0  0  0
  -24.8601  -22.6340  -23.0138 C   0  0  0  0  0  0  0  0  0  0  0  0
  -27.7002  -23.2933  -23.3031 C   0  0  0  0  0  0  0  0  0  0  0  0
  -24.3970  -23.0165  -24.4066 C   0  0  0  0  0  0  0  0  0  0  0  0
  -25.3027  -23.0424  -25.2517 O   0  0  0  0  0  0  0  0  0  0  0  0
  -23.0295  -23.2998  -24.6221 N   0  0  0  0  0  0  0  0  0  0  0  0
  -22.6917  -24.6920  -24.6230 C   0  0  0  0  0  0  0  0  0  0  0  0
  -22.1574  -22.1485  -24.7334 C   0  0  0  0  0  0  0  0  0  0  0  0
  -21.4595  -25.2336  -24.2209 C   0  0  0  0  0  0  0  0  0  0  0  0
  -23.6816  -25.5359  -25.0222 C   0  0  0  0  0  0  0  0  0  0  0  0
  -20.8362  -22.3546  -25.3372 C   0  0  0  0  0  0  0  0  0  0  0  0
  -21.9648  -21.4776  -23.3832 C   0  0  0  0  0  0  0  0  0  0  0  0
  -20.2800  -24.4395  -23.8366 N   0  0  0  0  0  0  0  0  0  0  0  0
  -21.1981  -26.5785  -24.2034 C   0  0  0  0  0  0  0  0  0  0  0  0
  -23.4097  -26.8878  -25.0010 C   0  0  0  0  0  0  0  0  0  0  0  0
  -20.1504  -21.1205  -25.6613 N   0  0  0  0  0  0  0  0  0  0  0  0
  -19.9397  -23.3019  -24.6270 C   0  0  0  0  0  0  0  0  0  0  0  0
  -19.5815  -24.9639  -22.7414 C   0  0  0  0  0  0  0  0  0  0  0  0
  -22.1960  -27.4352  -24.6022 C   0  0  0  0  0  0  0  0  0  0  0  0
  -24.4926  -27.7542  -25.4334 C   0  0  0  0  0  0  0  0  0  0  0  0
  -19.4042  -20.3795  -24.7081 C   0  0  0  0  0  0  0  0  0  0  0  0
  -18.7391  -23.0797  -24.7400 O   0  0  0  0  0  0  0  0  0  0  0  0
  -18.5427  -25.9621  -23.2316 C   0  0  0  0  0  0  0  0  0  0  0  0
  -25.3351  -28.4385  -25.7908 N   0  0  0  0  0  0  0  0  0  0  0  0
  -18.4263  -20.9427  -24.1241 O   0  0  0  0  0  0  0  0  0  0  0  0
  -19.7124  -18.9692  -24.3593 C   0  0  2  0  0  0  0  0  0  0  0  0
  -18.8247  -27.3047  -23.2393 C   0  0  0  0  0  0  0  0  0  0  0  0
  -17.3627  -25.5331  -23.7857 C   0  0  0  0  0  0  0  0  0  0  0  0
  -18.9348  -18.5765  -23.1979 N   0  0  0  0  0  0  0  0  0  0  0  0
  -21.2084  -18.9372  -24.0293 C   0  0  0  0  0  0  0  0  0  0  0  0
  -17.9183  -28.2095  -23.8146 C   0  0  0  0  0  0  0  0  0  0  0  0
  -19.9663  -27.7909  -22.6460 C   0  0  0  0  0  0  0  0  0  0  0  0
  -16.4740  -26.4627  -24.3546 C   0  0  0  0  0  0  0  0  0  0  0  0
  -16.8989  -24.1015  -23.7927 C   0  0  0  0  0  0  0  0  0  0  0  0
  -18.6041  -17.1635  -23.2823 C   0  0  0  0  0  0  0  0  0  0  0  0
  -16.7390  -27.7981  -24.3769 C   0  0  0  0  0  0  0  0  0  0  0  0
  -18.1534  -29.5699  -23.8048 C   0  0  0  0  0  0  0  0  0  0  0  0
  -20.1983  -29.1467  -22.6360 C   0  0  0  0  0  0  0  0  0  0  0  0
  -19.2974  -30.0402  -23.2141 C   0  0  0  0  0  0  0  0  0  0  0  0
  2  3  2  0
  2  4  2  0
  2  5  1  0
  2  6  1  0
  5  7  1  0
  7  8  2  0
  7  9  1  0
  9 10  1  0
  9 11  1  0
 10 12  4  0
 10 13  4  0
 11 14  1  0
 11 15  1  0
 12 16  1  0
 12 17  4  0
 13 18  4  0
 14 19  1  0
 14 20  1  0
 16 21  1  0
 17 22  4  0
 18 23  1  0
 19 24  1  0
 20 25  2  0
 21 26  1  0
 23 27  3  0
 24 28  2  0
 24 29  1  0
 26 30  4  0
 26 31  4  0
 29 32  1  0
 29 33  1  1
 30 34  4  0
 30 35  4  0
 31 36  4  0
 31 37  1  0
 32 38  1  0
 34 39  4  0
 34 40  4  0
 35 41  4  0
 40 42  4  0
 16 20  1  0
 18 22  4  0
 36 39  4  0
 41 42  4  0
M  END
