
     RDKit          3D

 20 20  0  0  0  0  0  0  0  0999 V2000
  -13.2117  -28.1122  -15.0034 Cl  0  0  0  0  0  0  0  0  0  0  0  0
  -14.5823  -28.7947  -15.9052 C   0  0  0  0  0  0  0  0  0  0  0  0
  -15.2215  -27.6091  -17.0640 Cl  0  0  0  0  0  0  0  0  0  0  0  0
  -15.6981  -29.1879  -14.9378 C   0  0  0  0  0  0  0  0  0  0  0  0
  -16.2037  -30.3113  -14.9425 O   0  0  0  0  0  0  0  0  0  0  0  0
  -16.1271  -28.2054  -14.0700 N   0  0  0  0  0  0  0  0  0  0  0  0
  -17.2117  -28.4161  -13.1031 C   0  0  0  0  0  0  0  0  0  0  0  0
  -18.5925  -28.2169  -13.7895 C   0  0  0  0  0  0  0  0  0  0  0  0
  -17.1049  -29.8269  -12.4877 C   0  0  0  0  0  0  0  0  0  0  0  0
  -18.6938  -29.0489  -14.9540 O   0  0  0  0  0  0  0  0  0  0  0  0
  -18.8379  -26.7658  -14.1721 C   0  0  0  0  0  0  0  0  0  0  0  0
  -16.9891  -30.8162  -13.5158 O   0  0  0  0  0  0  0  0  0  0  0  0
  -19.0581  -26.3818  -15.5059 C   0  0  0  0  0  0  0  0  0  0  0  0
  -18.8162  -25.7725  -13.1776 C   0  0  0  0  0  0  0  0  0  0  0  0
  -19.2553  -25.0405  -15.8443 C   0  0  0  0  0  0  0  0  0  0  0  0
  -19.0133  -24.4281  -13.5050 C   0  0  0  0  0  0  0  0  0  0  0  0
  -19.2322  -24.0672  -14.8400 C   0  0  0  0  0  0  0  0  0  0  0  0
  -19.4391  -22.6562  -15.1877 N   0  0  0  0  0  4  0  0  0  0  0  0
  -20.5011  -22.1246  -14.8316 O   0  0  0  0  0  0  0  0  0  0  0  0
  -18.5413  -22.0774  -15.8162 O   0  0  0  0  0  1  0  0  0  0  0  0
  1  2  1  0
  2  3  1  0
  2  4  1  0
  4  5  2  0
  4  6  1  0
  7  6  1  0
  7  8  1  0
  7  9  1  0
  8 10  1  0
  8 11  1  0
  9 12  1  0
 11 13  4  0
 11 14  4  0
 13 15  4  0
 14 16  4  0
 15 17  4  0
 17 18  1  0
 18 19  2  0
 18 20  1  0
 16 17  4  0
M  CHG  2  18   1  20  -1
M  END
