
     RDKit          3D

 31 34  0  0  0  0  0  0  0  0999 V2000
  -23.5240  -17.2465  -15.6524 S   0  0  0  0  0  0  0  0  0  0  0  0
  -22.5742  -16.1583  -14.7234 C   0  0  0  0  0  0  0  0  0  0  0  0
  -24.9668  -16.4047  -15.2893 C   0  0  0  0  0  0  0  0  0  0  0  0
  -23.3488  -15.1380  -14.2070 C   0  0  0  0  0  0  0  0  0  0  0  0
  -21.1490  -16.4083  -14.5443 C   0  0  0  0  0  0  0  0  0  0  0  0
  -24.7316  -15.2946  -14.5070 C   0  0  0  0  0  0  0  0  0  0  0  0
  -22.8546  -14.0902  -13.4885 N   0  0  0  0  0  0  0  0  0  0  0  0
  -20.6628  -17.5318  -14.6473 O   0  0  0  0  0  0  0  0  0  0  0  0
  -20.4323  -15.2591  -14.2398 N   0  0  0  0  0  0  0  0  0  0  0  0
  -23.2862  -13.9248  -12.0934 C   0  0  0  0  0  0  0  0  0  0  0  0
  -19.8905  -14.8760  -12.9989 C   0  0  0  0  0  0  0  0  0  0  0  0
  -23.0970  -15.1631  -11.2428 C   0  0  0  0  0  0  0  0  0  0  0  0
  -20.2099  -13.6916  -12.3344 C   0  0  0  0  0  0  0  0  0  0  0  0
  -18.9660  -15.7438  -12.4133 C   0  0  0  0  0  0  0  0  0  0  0  0
  -23.9280  -15.4785  -10.1360 C   0  0  0  0  0  0  0  0  0  0  0  0
  -22.0538  -16.0399  -11.5746 C   0  0  0  0  0  0  0  0  0  0  0  0
  -19.5968  -13.3634  -11.1175 C   0  0  0  0  0  0  0  0  0  0  0  0
  -18.3579  -15.4218  -11.1962 C   0  0  0  0  0  0  0  0  0  0  0  0
  -23.6294  -16.6591   -9.4114 C   0  0  0  0  0  0  0  0  0  0  0  0
  -25.0340  -14.6948   -9.7260 C   0  0  0  0  0  0  0  0  0  0  0  0
  -21.8609  -17.1692  -10.8033 C   0  0  0  0  0  0  0  0  0  0  0  0
  -18.6531  -14.2191  -10.5585 C   0  0  0  0  0  0  0  0  0  0  0  0
  -22.6218  -17.4882   -9.7399 N   0  0  0  0  0  0  0  0  0  0  0  0
  -24.4110  -16.9898   -8.3124 C   0  0  0  0  0  0  0  0  0  0  0  0
  -25.8056  -15.0525   -8.6203 C   0  0  0  0  0  0  0  0  0  0  0  0
  -18.0051  -13.9949   -9.3782 O   0  0  0  0  0  0  0  0  0  0  0  0
  -25.4897  -16.2002   -7.9075 C   0  0  0  0  0  0  0  0  0  0  0  0
  -18.2364  -14.9770   -8.3765 C   0  0  0  0  0  0  0  0  0  0  0  0
  -17.5564  -16.1209   -8.6254 F   0  0  0  0  0  0  0  0  0  0  0  0
  -17.9000  -14.5138   -7.1518 F   0  0  0  0  0  0  0  0  0  0  0  0
  -19.5576  -15.2750   -8.3682 F   0  0  0  0  0  0  0  0  0  0  0  0
  1  2  4  0
  1  3  4  0
  2  4  4  0
  2  5  1  0
  3  6  4  0
  4  7  1  0
  5  8  2  0
  5  9  1  0
  7 10  1  0
  9 11  1  0
 10 12  1  0
 11 13  4  0
 11 14  4  0
 12 15  4  0
 12 16  4  0
 13 17  4  0
 14 18  4  0
 15 19  4  0
 15 20  4  0
 16 21  4  0
 17 22  4  0
 19 23  4  0
 19 24  4  0
 20 25  4  0
 22 26  1  0
 24 27  4  0
 26 28  1  0
 28 29  1  0
 28 30  1  0
 28 31  1  0
  4  6  4  0
 18 22  4  0
 21 23  4  0
 25 27  4  0
M  END
