
     RDKit          3D

 28 31  0  0  0  0  0  0  0  0999 V2000
  -17.9262  -28.4293  -22.8713 O   0  0  0  0  0  0  0  0  0  0  0  0
  -18.9155  -27.8026  -23.2287 C   0  0  0  0  0  0  0  0  0  0  0  0
  -20.2059  -27.8617  -22.7339 N   0  0  0  0  0  0  0  0  0  0  0  0
  -18.7798  -26.9054  -24.3910 C   0  0  0  0  0  0  0  0  0  0  0  0
  -21.2420  -26.9351  -22.9630 C   0  0  0  0  0  0  0  0  0  0  0  0
  -19.4063  -27.1813  -25.6214 C   0  0  0  0  0  0  0  0  0  0  0  0
  -17.9895  -25.7699  -24.2060 C   0  0  0  0  0  0  0  0  0  0  0  0
  -21.4722  -25.8109  -22.1773 C   0  0  0  0  0  0  0  0  0  0  0  0
  -22.0930  -27.1721  -24.0429 C   0  0  0  0  0  0  0  0  0  0  0  0
  -19.1604  -26.2553  -26.6501 C   0  0  0  0  0  0  0  0  0  0  0  0
  -20.2554  -28.2923  -25.8680 C   0  0  0  0  0  0  0  0  0  0  0  0
  -17.7972  -24.9226  -25.2842 C   0  0  0  0  0  0  0  0  0  0  0  0
  -22.5426  -24.9455  -22.4637 C   0  0  0  0  0  0  0  0  0  0  0  0
  -23.1631  -26.3050  -24.3158 C   0  0  0  0  0  0  0  0  0  0  0  0
  -18.3709  -25.1783  -26.4896 N   0  0  0  0  0  0  0  0  0  0  0  0
  -19.7567  -26.4645  -27.8860 C   0  0  0  0  0  0  0  0  0  0  0  0
  -20.8472  -28.4732  -27.1153 C   0  0  0  0  0  0  0  0  0  0  0  0
  -16.9413  -23.7175  -25.2016 C   0  0  0  0  0  0  0  0  0  0  0  0
  -23.4176  -25.1569  -23.5435 C   0  0  0  0  0  0  0  0  0  0  0  0
  -20.5948  -27.5583  -28.1291 C   0  0  0  0  0  0  0  0  0  0  0  0
  -15.8838  -23.7827  -24.3581 N   0  0  0  0  0  0  0  0  0  0  0  0
  -17.2030  -22.5738  -25.9419 C   0  0  0  0  0  0  0  0  0  0  0  0
  -24.5098  -24.3180  -23.8053 N   0  0  0  0  0  0  0  0  0  0  0  0
  -15.1096  -22.6913  -24.2696 C   0  0  0  0  0  0  0  0  0  0  0  0
  -16.3399  -21.5149  -25.7697 C   0  0  0  0  0  0  0  0  0  0  0  0
  -25.7179  -24.5020  -22.9973 C   0  0  0  0  0  0  0  0  0  0  0  0
  -24.7531  -23.8806  -25.1802 C   0  0  0  0  0  0  0  0  0  0  0  0
  -15.2835  -21.5454  -24.9414 N   0  0  0  0  0  0  0  0  0  0  0  0
  1  2  2  0
  2  3  1  0
  2  4  1  0
  3  5  1  0
  4  6  4  0
  4  7  4  0
  5  8  4  0
  5  9  4  0
  6 10  4  0
  6 11  4  0
  7 12  4  0
  8 13  4  0
  9 14  4  0
 10 15  4  0
 10 16  4  0
 11 17  4  0
 12 18  1  0
 13 19  4  0
 16 20  4  0
 18 21  4  0
 18 22  4  0
 19 23  1  0
 21 24  4  0
 22 25  4  0
 23 26  1  0
 23 27  1  0
 24 28  4  0
 12 15  4  0
 14 19  4  0
 17 20  4  0
 25 28  4  0
M  END
