
     RDKit          3D

 24 28  0  0  0  0  0  0  0  0999 V2000
  -19.2707  -12.9390  -15.1939 O   0  0  0  0  0  0  0  0  0  0  0  0
  -20.4639  -12.6841  -15.1341 C   0  0  0  0  0  0  0  0  0  0  0  0
  -21.0945  -12.1086  -14.0741 O   0  0  0  0  0  0  0  0  0  0  0  0
  -21.4469  -12.9522  -16.2315 C   0  0  0  0  0  0  0  0  0  0  0  0
  -21.2878  -12.9627  -12.9047 C   0  0  0  0  0  0  0  0  0  0  0  0
  -19.8859  -13.4549  -12.4553 C   0  0  0  0  0  0  0  0  0  0  0  0
  -22.2340  -14.1392  -13.2655 C   0  0  0  0  0  0  0  0  0  0  0  0
  -18.9368  -12.3941  -12.5364 O   0  0  0  0  0  0  0  0  0  0  0  0
  -19.3509  -14.6100  -13.2467 C   0  0  0  0  0  0  0  0  0  0  0  0
  -22.7058  -15.0296  -12.1226 C   0  0  0  0  0  0  0  0  0  0  0  0
  -21.5670  -14.9900  -14.3894 C   0  0  0  0  0  0  0  0  0  0  0  0
  -20.1145  -15.2873  -14.1149 C   0  0  0  0  0  0  0  0  0  0  0  0
  -23.2485  -16.2942  -12.4905 C   0  0  0  0  0  0  0  0  0  0  0  0
  -22.6846  -14.6522  -10.7724 C   0  0  0  0  0  0  0  0  0  0  0  0
  -22.1548  -16.3070  -14.7300 N   0  0  0  0  0  0  0  0  0  0  0  0
  -19.7788  -16.5742  -14.7865 C   0  0  0  0  0  0  0  0  0  0  0  0
  -23.7324  -17.1780  -11.5148 C   0  0  0  0  0  0  0  0  0  0  0  0
  -23.3565  -16.6330  -13.9617 C   0  0  0  0  0  0  0  0  0  0  0  0
  -23.1604  -15.5521   -9.8404 C   0  0  0  0  0  0  0  0  0  0  0  0
  -21.0913  -17.3189  -14.5718 C   0  0  0  0  0  0  0  0  0  0  0  0
  -23.6653  -16.7786  -10.1994 C   0  0  0  0  0  0  0  0  0  0  0  0
  -23.2003  -15.3488   -8.4956 O   0  0  0  0  0  0  0  0  0  0  0  0
  -24.0857  -17.5020   -9.1276 O   0  0  0  0  0  0  0  0  0  0  0  0
  -23.7873  -16.5892   -8.0510 C   0  0  0  0  0  0  0  0  0  0  0  0
  1  2  2  0
  2  3  1  0
  2  4  1  0
  5  3  1  0
  5  6  1  0
  5  7  1  0
  6  8  1  0
  6  9  1  0
  7 10  1  0
  7 11  1  0
  9 12  2  0
 10 13  4  0
 10 14  4  0
 11 15  1  0
 12 16  1  0
 13 17  4  0
 13 18  1  0
 14 19  4  0
 15 20  1  0
 17 21  4  0
 19 22  1  0
 21 23  1  0
 22 24  1  0
 11 12  1  0
 15 18  1  0
 16 20  1  0
 19 21  4  0
 23 24  1  0
M  END
