
     RDKit          3D

 63 67  0  0  0  0  0  0  0  0999 V2000
   -6.1021  -29.6950  -11.4693 O   0  0  0  0  0  0  0  0  0  0  0  0
   -6.3938  -28.7738  -12.2115 C   0  0  0  0  0  0  0  0  0  0  0  0
   -6.6935  -27.4631  -11.8285 N   0  0  0  0  0  0  0  0  0  0  0  0
   -6.5187  -28.8504  -13.6065 N   0  0  0  0  0  0  0  0  0  0  0  0
   -6.9236  -27.0085  -10.4460 C   0  0  0  0  0  0  0  0  0  0  0  0
   -7.1570  -26.6929  -12.9577 C   0  0  0  0  0  0  0  0  0  0  0  0
   -7.2187  -27.6892  -14.0994 C   0  0  0  0  0  0  0  0  0  0  0  0
   -6.7085  -30.1438  -14.2472 C   0  0  0  0  0  0  0  0  0  0  0  0
   -7.2968  -25.4954  -10.4803 C   0  0  0  0  0  0  0  0  0  0  0  0
   -7.8255  -27.9372   -9.5447 C   0  0  0  0  0  0  0  0  0  0  0  0
   -8.1500  -30.5812  -14.3772 C   0  0  0  0  0  0  0  0  0  0  0  0
   -8.4387  -25.0716  -10.3173 O   0  0  0  0  0  0  0  0  0  0  0  0
   -6.2502  -24.6340  -10.7546 N   0  0  0  0  0  0  0  0  0  0  0  0
   -8.9421  -28.6001  -10.3847 C   0  0  0  0  0  0  0  0  0  0  0  0
   -8.4706  -27.2188   -8.3452 C   0  0  0  0  0  0  0  0  0  0  0  0
   -6.9728  -29.0995   -8.9708 C   0  0  0  0  0  0  0  0  0  0  0  0
   -8.8478  -30.0990  -15.4376 N   0  0  0  0  0  0  0  0  0  0  0  0
   -8.7062  -31.4799  -13.4693 C   0  0  0  0  0  0  0  0  0  0  0  0
   -6.2738  -23.7476  -11.9222 C   0  0  0  0  0  0  0  0  0  0  0  0
  -10.1427  -30.4744  -15.5947 C   0  0  0  0  0  0  0  0  0  0  0  0
  -10.0235  -31.8849  -13.6507 C   0  0  0  0  0  0  0  0  0  0  0  0
   -4.9680  -22.9046  -12.0574 C   0  0  0  0  0  0  0  0  0  0  0  0
   -7.5353  -22.8523  -11.8454 C   0  0  0  0  0  0  0  0  0  0  0  0
  -10.7531  -31.3718  -14.7180 C   0  0  0  0  0  0  0  0  0  0  0  0
  -10.9495  -29.7852  -16.6938 C   0  0  0  0  0  0  0  0  0  0  0  0
   -4.4637  -22.5326  -10.7740 O   0  0  0  0  0  0  0  0  0  0  0  0
   -5.1469  -21.6398  -12.9156 C   0  0  0  0  0  0  0  0  0  0  0  0
   -7.4551  -21.7645  -10.7983 C   0  0  0  0  0  0  0  0  0  0  0  0
  -12.2809  -29.4890  -16.2282 O   0  0  0  0  0  0  0  0  0  0  0  0
  -10.2550  -28.4658  -17.0644 C   0  0  0  0  0  0  0  0  0  0  0  0
  -11.1006  -30.6674  -17.9409 C   0  0  0  0  0  0  0  0  0  0  0  0
   -4.9955  -21.9073  -14.4330 C   0  0  0  0  0  0  0  0  0  0  0  0
   -7.6581  -20.4237  -11.1581 C   0  0  0  0  0  0  0  0  0  0  0  0
   -7.1877  -22.0745   -9.4580 C   0  0  0  0  0  0  0  0  0  0  0  0
   -6.2675  -22.3924  -14.9905 N   0  0  0  0  0  0  0  0  0  0  0  0
   -4.5276  -20.6299  -15.1746 C   0  0  0  0  0  0  0  0  0  0  0  0
   -7.5976  -19.4143  -10.1967 C   0  0  0  0  0  0  0  0  0  0  0  0
   -7.1292  -21.0632   -8.4985 C   0  0  0  0  0  0  0  0  0  0  0  0
   -6.3958  -23.6958  -15.4308 C   0  0  0  0  0  0  0  0  0  0  0  0
   -5.5234  -20.0857  -16.1768 C   0  0  0  0  0  0  0  0  0  0  0  0
   -7.3325  -19.7331   -8.8661 C   0  0  0  0  0  0  0  0  0  0  0  0
   -5.6171  -24.5955  -15.1061 O   0  0  0  0  0  0  0  0  0  0  0  0
   -7.6170  -23.9582  -16.3417 C   0  0  0  0  0  0  0  0  0  0  0  0
   -6.2385  -18.9182  -15.8907 C   0  0  0  0  0  0  0  0  0  0  0  0
   -5.7401  -20.7207  -17.4039 C   0  0  0  0  0  0  0  0  0  0  0  0
   -8.1189  -22.6381  -16.7097 N   0  0  0  0  0  0  0  0  0  0  0  0
   -7.2878  -24.8407  -17.5884 C   0  0  0  0  0  0  0  0  0  0  0  0
   -7.1666  -18.4104  -16.8064 C   0  0  0  0  0  0  0  0  0  0  0  0
   -6.6703  -20.2072  -18.3172 C   0  0  0  0  0  0  0  0  0  0  0  0
   -8.6462  -21.7732  -15.8029 C   0  0  0  0  0  0  0  0  0  0  0  0
   -7.1813  -26.3266  -17.1869 C   0  0  0  0  0  0  0  0  0  0  0  0
   -5.9676  -24.4157  -18.2602 C   0  0  0  0  0  0  0  0  0  0  0  0
   -8.4234  -24.7164  -18.6299 C   0  0  0  0  0  0  0  0  0  0  0  0
   -7.4040  -19.0404  -18.0400 C   0  0  0  0  0  0  0  0  0  0  0  0
   -8.8401  -20.5802  -15.9983 O   0  0  0  0  0  0  0  0  0  0  0  0
   -8.9301  -22.4420  -14.6609 O   0  0  0  0  0  0  0  0  0  0  0  0
   -8.3854  -18.4814  -18.9927 C   0  0  0  0  0  0  0  0  0  0  0  0
   -9.2422  -21.5910  -13.5580 C   0  0  0  0  0  0  0  0  0  0  0  0
   -8.3458  -18.9930  -20.2507 N   0  0  0  0  0  0  0  0  0  0  0  0
   -9.3128  -17.5022  -18.6346 C   0  0  0  0  0  0  0  0  0  0  0  0
   -9.2224  -18.5117  -21.1594 C   0  0  0  0  0  0  0  0  0  0  0  0
  -10.2119  -17.0303  -19.5896 C   0  0  0  0  0  0  0  0  0  0  0  0
  -10.1658  -17.5404  -20.8801 C   0  0  0  0  0  0  0  0  0  0  0  0
  1  2  2  0
  2  3  1  0
  2  4  1  0
  5  3  1  0
  3  6  1  0
  4  7  1  0
  4  8  1  0
  5  9  1  0
  5 10  1  0
  8 11  1  0
  9 12  2  0
  9 13  1  0
 10 14  1  0
 10 15  1  0
 10 16  1  0
 11 17  4  0
 11 18  4  0
 19 13  1  0
 17 20  4  0
 18 21  4  0
 19 22  1  0
 19 23  1  0
 20 24  4  0
 20 25  1  0
 22 26  1  0
 22 27  1  0
 23 28  1  0
 25 29  1  0
 25 30  1  0
 25 31  1  0
 32 27  1  0
 28 33  4  0
 28 34  4  0
 32 35  1  0
 32 36  1  0
 33 37  4  0
 34 38  4  0
 35 39  1  0
 36 40  1  0
 37 41  4  0
 39 42  2  0
 39 43  1  0
 40 44  4  0
 40 45  4  0
 43 46  1  0
 43 47  1  0
 44 48  4  0
 45 49  4  0
 46 50  1  0
 47 51  1  0
 47 52  1  0
 47 53  1  0
 48 54  4  0
 50 55  2  0
 50 56  1  0
 54 57  1  0
 56 58  1  0
 57 59  4  0
 57 60  4  0
 59 61  4  0
 60 62  4  0
 61 63  4  0
  6  7  1  0
 21 24  4  0
 38 41  4  0
 49 54  4  0
 62 63  4  0
M  END
