
     RDKit          3D

 30 32  0  0  0  0  0  0  0  0999 V2000
  -20.8719  -16.0554  -15.4191 O   0  0  0  0  0  0  0  0  0  0  0  0
  -20.7102  -15.3284  -14.4495 C   0  0  0  0  0  0  0  0  0  0  0  0
  -21.1656  -15.5622  -13.1996 O   0  0  0  0  0  0  0  0  0  0  0  0
  -20.0047  -14.1648  -14.4468 N   0  0  0  0  0  0  0  0  0  0  0  0
  -22.5647  -15.3086  -12.9568 C   0  0  0  0  0  0  0  0  0  0  0  0
  -19.6253  -13.5162  -13.1991 C   0  0  0  0  0  0  0  0  0  0  0  0
  -23.2167  -16.5576  -12.3194 C   0  0  0  0  0  0  0  0  0  0  0  0
  -23.2312  -14.8834  -14.2756 C   0  0  0  0  0  0  0  0  0  0  0  0
  -19.4638  -14.6622  -12.1835 C   0  0  0  0  0  0  0  0  0  0  0  0
  -20.7004  -12.5082  -12.7416 C   0  0  0  0  0  0  0  0  0  0  0  0
  -22.4612  -17.1273  -11.2407 O   0  0  0  0  0  0  0  0  0  0  0  0
  -23.5891  -17.6606  -13.3512 C   0  0  0  0  0  0  0  0  0  0  0  0
  -24.5705  -15.5661  -14.5292 C   0  0  0  0  0  0  0  0  0  0  0  0
  -18.6322  -15.5595  -12.2928 O   0  0  0  0  0  0  0  0  0  0  0  0
  -20.2785  -14.5880  -11.0837 N   0  0  0  0  0  0  0  0  0  0  0  0
  -21.6534  -12.1633  -13.8920 C   0  0  0  0  0  0  0  0  0  0  0  0
  -20.0669  -11.2177  -12.2119 C   0  0  0  0  0  0  0  0  0  0  0  0
  -22.8898  -16.7326   -9.9464 C   0  0  0  0  0  0  0  0  0  0  0  0
  -24.4483  -17.0654  -14.4613 C   0  0  0  0  0  0  0  0  0  0  0  0
  -22.4055  -18.5166  -13.8041 C   0  0  2  0  0  0  0  0  0  0  0  0
  -24.3728  -17.7029  -15.7464 O   0  0  0  0  0  0  0  0  0  0  0  0
  -25.5833  -17.9093  -15.0174 C   0  0  0  0  0  0  0  0  0  0  0  0
  -22.3259  -18.6839  -15.2407 O   0  0  0  0  0  0  0  0  0  0  0  0
  -22.7356  -19.8365  -14.5056 C   0  0  0  0  0  0  0  0  0  0  0  0
  -21.0494  -18.3237  -13.1864 C   0  0  0  0  0  0  0  0  0  0  0  0
  -21.7960  -21.0030  -14.5309 C   0  0  0  0  0  0  0  0  0  0  0  0
  -22.4990  -22.3131  -14.2766 C   0  0  0  0  0  0  0  0  0  0  0  0
  -23.4078  -22.9465  -15.0449 C   0  0  0  0  0  0  0  0  0  0  0  0
  -24.0215  -24.2421  -14.5839 C   0  0  0  0  0  0  0  0  0  0  0  0
  -23.9015  -22.4751  -16.3846 C   0  0  0  0  0  0  0  0  0  0  0  0
  1  2  2  0
  2  3  1  0
  2  4  1  0
  5  3  1  0
  6  4  1  0
  5  7  1  0
  5  8  1  0
  6  9  1  0
  6 10  1  0
  7 11  1  0
  7 12  1  0
  8 13  1  0
  9 14  2  0
  9 15  1  0
 10 16  1  0
 10 17  1  0
 11 18  1  0
 12 19  1  0
 12 20  1  0
 19 21  1  0
 19 22  1  0
 20 23  1  0
 20 24  1  0
 20 25  1  1
 24 26  1  0
 26 27  1  0
 27 28  2  3
 28 29  1  0
 28 30  1  0
 13 19  1  0
 21 22  1  0
 23 24  1  0
M  END
