
     RDKit          3D

 26 28  0  0  0  0  0  0  0  0999 V2000
  -20.6950  -15.1679  -16.2262 O   0  0  0  0  0  0  0  0  0  0  0  0
  -20.0864  -15.4729  -15.0416 C   0  0  0  0  0  0  0  0  0  0  0  0
  -20.6767  -13.7840  -16.6014 C   0  0  0  0  0  0  0  0  0  0  0  0
  -20.7324  -15.4717  -13.8058 C   0  0  0  0  0  0  0  0  0  0  0  0
  -18.7142  -15.7132  -15.1051 C   0  0  0  0  0  0  0  0  0  0  0  0
  -19.3213  -13.4450  -17.2331 C   0  0  0  0  0  0  0  0  0  0  0  0
  -20.0120  -15.7509  -12.6407 C   0  0  0  0  0  0  0  0  0  0  0  0
  -17.9925  -15.9952  -13.9428 C   0  0  0  0  0  0  0  0  0  0  0  0
  -18.3342  -13.0198  -16.2351 N   0  0  0  0  0  0  0  0  0  0  0  0
  -18.6395  -16.0218  -12.7028 C   0  0  0  0  0  0  0  0  0  0  0  0
  -17.8780  -16.3040  -11.4623 C   0  0  0  0  0  0  0  0  0  0  0  0
  -17.9907  -17.6395  -10.8203 C   0  0  0  0  0  0  0  0  0  0  0  0
  -17.0823  -15.3379  -10.9300 C   0  0  0  0  0  0  0  0  0  0  0  0
  -17.7577  -17.7867   -9.4456 C   0  0  0  0  0  0  0  0  0  0  0  0
  -18.3118  -18.7678  -11.5869 C   0  0  0  0  0  0  0  0  0  0  0  0
  -16.2827  -15.5784   -9.7039 C   0  0  0  0  0  0  0  0  0  0  0  0
  -16.8550  -13.9575  -11.5270 C   0  0  0  0  0  0  0  0  0  0  0  0
  -17.8510  -19.0436   -8.8454 C   0  0  0  0  0  0  0  0  0  0  0  0
  -18.4093  -20.0234  -10.9839 C   0  0  0  0  0  0  0  0  0  0  0  0
  -14.9690  -16.0544   -9.8037 C   0  0  0  0  0  0  0  0  0  0  0  0
  -16.8288  -15.3357   -8.4364 C   0  0  0  0  0  0  0  0  0  0  0  0
  -18.1144  -13.1014  -11.5306 C   0  0  0  0  0  0  0  0  0  0  0  0
  -18.1777  -20.1606   -9.6145 C   0  0  0  0  0  0  0  0  0  0  0  0
  -14.2140  -16.2860   -8.6528 C   0  0  0  0  0  0  0  0  0  0  0  0
  -16.0731  -15.5688   -7.2857 C   0  0  0  0  0  0  0  0  0  0  0  0
  -14.7666  -16.0436   -7.3946 C   0  0  0  0  0  0  0  0  0  0  0  0
  1  2  1  0
  1  3  1  0
  2  4  4  0
  2  5  4  0
  3  6  1  0
  4  7  4  0
  5  8  4  0
  6  9  1  0
  7 10  4  0
 10 11  1  0
 11 12  1  0
 11 13  2  0
 12 14  4  0
 12 15  4  0
 13 16  1  0
 13 17  1  0
 14 18  4  0
 15 19  4  0
 16 20  4  0
 16 21  4  0
 17 22  1  0
 18 23  4  0
 20 24  4  0
 21 25  4  0
 24 26  4  0
  8 10  4  0
 19 23  4  0
 25 26  4  0
M  END
