
     RDKit          3D

 48 53  0  0  0  0  0  0  0  0999 V2000
  -19.7336  -16.1564  -15.0575 O   0  0  0  0  0  0  0  0  0  0  0  0
  -20.9000  -15.9401  -14.7391 C   0  0  0  0  0  0  0  0  0  0  0  0
  -21.6025  -16.6793  -13.8059 N   0  0  0  0  0  0  0  0  0  0  0  0
  -21.6793  -14.7254  -15.2763 C   0  0  0  0  0  0  0  0  0  0  0  0
  -22.5335  -17.7675  -14.1207 C   0  0  0  0  0  0  0  0  0  0  0  0
  -20.7599  -13.6551  -15.7904 N   0  0  0  0  0  0  0  0  0  0  0  0
  -22.6081  -15.2740  -16.3966 C   0  0  0  0  0  0  0  0  0  0  0  0
  -23.1561  -17.5806  -15.5152 C   0  0  0  0  0  0  0  0  0  0  0  0
  -21.7363  -19.0845  -14.1233 C   0  0  0  0  0  0  0  0  0  0  0  0
  -23.6394  -17.8615  -13.0564 C   0  0  0  0  0  0  0  0  0  0  0  0
  -21.5225  -12.6330  -16.5368 C   0  0  0  0  0  0  0  0  0  0  0  0
  -19.9101  -13.0290  -14.7449 C   0  0  0  0  0  0  0  0  0  0  0  0
  -23.4053  -14.2485  -17.1137 N   0  0  0  0  0  0  0  0  0  0  0  0
  -22.4666  -13.2231  -17.6122 C   0  0  0  0  0  0  0  0  0  0  0  0
  -19.4048  -13.9096  -13.5712 C   0  0  0  0  0  0  0  0  0  0  0  0
  -24.4554  -13.6499  -16.2756 C   0  0  0  0  0  0  0  0  0  0  0  0
  -18.0448  -14.2589  -13.8014 O   0  0  0  0  0  0  0  0  0  0  0  0
  -19.5694  -13.2341  -12.1937 C   0  0  0  0  0  0  0  0  0  0  0  0
  -25.4471  -14.6567  -15.7473 C   0  0  0  0  0  0  0  0  0  0  0  0
  -19.8202  -14.1727  -10.9929 C   0  0  0  0  0  0  0  0  0  0  0  0
  -26.5308  -15.0649  -16.5297 C   0  0  0  0  0  0  0  0  0  0  0  0
  -25.3003  -15.2198  -14.4709 C   0  0  0  0  0  0  0  0  0  0  0  0
  -18.5832  -14.5340  -10.1743 C   0  0  0  0  0  0  0  0  0  0  0  0
  -20.6102  -15.4441  -11.3697 C   0  0  0  0  0  0  0  0  0  0  0  0
  -27.4894  -15.9516  -16.1716 N   0  0  0  0  0  0  0  0  0  0  0  0
  -26.2611  -16.1552  -14.0566 C   0  0  0  0  0  0  0  0  0  0  0  0
  -17.5698  -13.8412  -10.2138 O   0  0  0  0  0  0  0  0  0  0  0  0
  -18.6913  -15.6326   -9.3570 N   0  0  0  0  0  0  0  0  0  0  0  0
  -22.0943  -15.4255  -11.0938 C   0  0  0  0  0  0  0  0  0  0  0  0
  -27.2977  -16.4577  -14.9394 C   0  0  0  0  0  0  0  0  0  0  0  0
  -26.4863  -16.9440  -12.8981 C   0  0  0  0  0  0  0  0  0  0  0  0
  -19.1390  -15.4713   -7.9859 C   0  0  0  0  0  0  0  0  0  0  0  0
  -22.9415  -14.5239  -11.7520 C   0  0  0  0  0  0  0  0  0  0  0  0
  -22.6457  -16.3031  -10.1498 C   0  0  0  0  0  0  0  0  0  0  0  0
  -28.1307  -17.3765  -14.3716 O   0  0  0  0  0  0  0  0  0  0  0  0
  -27.6330  -17.6649  -13.1408 C   0  0  0  0  0  0  0  0  0  0  0  0
  -18.6815  -16.6214   -7.1381 C   0  0  0  0  0  0  0  0  0  0  0  0
  -20.6869  -15.5544   -7.8401 C   0  0  0  0  0  0  0  0  0  0  0  0
  -24.3131  -14.5197  -11.4902 C   0  0  0  0  0  0  0  0  0  0  0  0
  -24.0157  -16.2952   -9.8852 C   0  0  0  0  0  0  0  0  0  0  0  0
  -19.7398  -17.4836   -6.8336 C   0  0  0  0  0  0  0  0  0  0  0  0
  -17.3994  -16.8673   -6.6667 C   0  0  0  0  0  0  0  0  0  0  0  0
  -21.1616  -14.6590   -6.8217 O   0  0  0  0  0  0  0  0  0  0  0  0
  -21.0242  -17.0084   -7.4464 C   0  0  0  0  0  0  0  0  0  0  0  0
  -24.8504  -15.4069  -10.5603 C   0  0  0  0  0  0  0  0  0  0  0  0
  -19.5334  -18.6253   -6.0755 C   0  0  0  0  0  0  0  0  0  0  0  0
  -17.1849  -18.0084   -5.8922 C   0  0  0  0  0  0  0  0  0  0  0  0
  -18.2442  -18.8834   -5.6021 C   0  0  0  0  0  0  0  0  0  0  0  0
  1  2  2  0
  2  3  1  0
  4  2  1  0
  3  5  1  0
  4  6  1  0
  4  7  1  0
  5  8  1  0
  5  9  1  0
  5 10  1  0
  6 11  1  0
  6 12  1  0
  7 13  1  0
 11 14  1  0
 12 15  1  0
 13 16  1  0
 15 17  1  0
 15 18  1  0
 16 19  1  0
 20 18  1  0
 19 21  4  0
 19 22  4  0
 20 23  1  0
 20 24  1  0
 21 25  4  0
 22 26  4  0
 23 27  2  0
 23 28  1  0
 24 29  1  0
 25 30  4  0
 26 31  4  0
 32 28  1  0
 29 33  4  0
 29 34  4  0
 30 35  4  0
 31 36  4  0
 32 37  1  0
 32 38  1  0
 33 39  4  0
 34 40  4  0
 37 41  4  0
 37 42  4  0
 38 43  1  0
 38 44  1  0
 39 45  4  0
 41 46  4  0
 42 47  4  0
 46 48  4  0
 13 14  1  0
 26 30  4  0
 35 36  4  0
 40 45  4  0
 41 44  1  0
 47 48  4  0
M  END
