
     RDKit          3D

 27 31  0  0  0  0  0  0  0  0999 V2000
  -19.3827  -23.0669  -26.4180 O   0  0  0  0  0  0  0  0  0  0  0  0
  -20.5165  -22.9671  -25.9748 C   0  0  0  0  0  0  0  0  0  0  0  0
  -20.9709  -21.9547  -25.1902 O   0  0  0  0  0  0  0  0  0  0  0  0
  -21.6123  -23.9588  -26.2174 C   0  0  0  0  0  0  0  0  0  0  0  0
  -20.8454  -20.6377  -25.7514 C   0  0  0  0  0  0  0  0  0  0  0  0
  -22.0283  -19.8510  -25.2409 C   0  0  0  0  0  0  0  0  0  0  0  0
  -19.4898  -19.9755  -25.3622 C   0  0  0  0  0  0  0  0  0  0  0  0
  -21.9179  -19.0441  -24.1767 C   0  0  0  0  0  0  0  0  0  0  0  0
  -19.3555  -18.7471  -26.1169 O   0  0  0  0  0  0  0  0  0  0  0  0
  -19.4378  -19.6830  -23.8398 C   0  0  0  0  0  0  0  0  0  0  0  0
  -20.6778  -18.9083  -23.3523 C   0  0  0  0  0  0  0  0  0  0  0  0
  -22.8382  -17.9188  -23.8009 C   0  0  0  0  0  0  0  0  0  0  0  0
  -19.9775  -18.6853  -27.3218 C   0  0  0  0  0  0  0  0  0  0  0  0
  -18.1487  -19.0110  -23.3645 C   0  0  0  0  0  0  0  0  0  0  0  0
  -20.5396  -17.4485  -23.3735 N   0  0  0  0  0  0  0  0  0  0  0  0
  -21.8875  -16.9483  -23.0689 C   0  0  0  0  0  0  0  0  0  0  0  0
  -20.9698  -18.0227  -27.5863 O   0  0  0  0  0  0  0  0  0  0  0  0
  -19.2587  -19.5557  -28.3062 C   0  0  0  0  0  0  0  0  0  0  0  0
  -18.1855  -17.7331  -22.7276 C   0  0  0  0  0  0  0  0  0  0  0  0
  -16.9161  -19.6657  -23.5428 C   0  0  0  0  0  0  0  0  0  0  0  0
  -19.5002  -17.0229  -22.4509 C   0  0  0  0  0  0  0  0  0  0  0  0
  -16.9924  -17.1357  -22.2829 C   0  0  0  0  0  0  0  0  0  0  0  0
  -15.7718  -19.0388  -23.0990 C   0  0  0  0  0  0  0  0  0  0  0  0
  -15.8087  -17.8093  -22.4893 C   0  0  0  0  0  0  0  0  0  0  0  0
  -14.5085  -19.5339  -23.1927 O   0  0  0  0  0  0  0  0  0  0  0  0
  -14.5735  -17.3721  -22.1246 O   0  0  0  0  0  0  0  0  0  0  0  0
  -13.7521  -18.4585  -22.6014 C   0  0  0  0  0  0  0  0  0  0  0  0
  1  2  2  0
  2  3  1  0
  2  4  1  0
  5  3  1  0
  5  6  1  0
  5  7  1  0
  6  8  2  0
  7  9  1  0
  7 10  1  0
  8 11  1  0
  8 12  1  0
  9 13  1  0
 10 14  1  0
 11 15  1  0
 12 16  1  0
 13 17  2  0
 13 18  1  0
 14 19  4  0
 14 20  4  0
 15 21  1  0
 19 22  4  0
 20 23  4  0
 22 24  4  0
 23 25  1  0
 24 26  1  0
 25 27  1  0
 10 11  1  0
 15 16  1  0
 19 21  1  0
 23 24  4  0
 26 27  1  0
M  END
