
     RDKit          3D

 36 42  0  0  0  0  0  0  0  0999 V2000
  -21.4959  -19.5495  -13.7619 S   0  0  0  0  0  0  0  0  0  0  0  0
  -22.2370  -18.0515  -14.2139 C   0  0  0  0  0  0  0  0  0  0  0  0
  -21.8092  -20.2971  -15.2620 C   0  0  0  0  0  0  0  0  0  0  0  0
  -22.3553  -16.8056  -13.5446 C   0  0  0  0  0  0  0  0  0  0  0  0
  -22.8141  -18.2024  -15.4774 C   0  0  0  0  0  0  0  0  0  0  0  0
  -22.5667  -19.4771  -16.0652 C   0  0  0  0  0  0  0  0  0  0  0  0
  -21.3076  -21.6833  -15.5634 C   0  0  0  0  0  0  0  0  0  0  0  0
  -23.0888  -15.8617  -14.2045 N   0  0  0  0  0  0  0  0  0  0  0  0
  -21.8449  -16.4465  -12.2749 N   0  0  0  0  0  0  0  0  0  0  0  0
  -23.5231  -17.2357  -16.0966 N   0  0  0  0  0  0  0  0  0  0  0  0
  -21.8000  -22.6931  -14.6182 N   0  0  0  0  0  0  0  0  0  0  0  0
  -23.6384  -16.1039  -15.4064 C   0  0  0  0  0  0  0  0  0  0  0  0
  -21.1603  -15.1426  -12.1467 C   0  0  0  0  0  0  0  0  0  0  0  0
  -22.8381  -16.6806  -11.1910 C   0  0  0  0  0  0  0  0  0  0  0  0
  -22.5438  -23.8123  -15.2228 C   0  0  0  0  0  0  0  0  0  0  0  0
  -22.6368  -22.0936  -13.5626 C   0  0  0  0  0  0  0  0  0  0  0  0
  -24.4067  -15.0309  -16.0214 C   0  0  0  0  0  0  0  0  0  0  0  0
  -20.6615  -14.9129  -10.7109 C   0  0  0  0  0  0  0  0  0  0  0  0
  -22.2427  -16.3769   -9.8106 C   0  0  0  0  0  0  0  0  0  0  0  0
  -24.0284  -23.5803  -15.6195 C   0  0  1  0  0  0  0  0  0  0  0  0
  -24.0510  -21.6898  -14.0281 C   0  0  0  0  0  0  0  0  0  0  0  0
  -23.8034  -14.0580  -16.8354 C   0  0  0  0  0  0  0  0  0  0  0  0
  -25.8045  -14.9221  -15.7972 C   0  0  0  0  0  0  0  0  0  0  0  0
  -21.7186  -15.0425   -9.7522 O   0  0  0  0  0  0  0  0  0  0  0  0
  -24.8147  -22.7969  -14.6281 N   0  0  0  0  0  0  0  0  0  0  0  0
  -24.1979  -23.0211  -17.0491 C   0  0  0  0  0  0  0  0  0  0  0  0
  -22.4886  -14.1267  -17.1022 F   0  0  0  0  0  0  0  0  0  0  0  0
  -24.5251  -13.0161  -17.4106 C   0  0  0  0  0  0  0  0  0  0  0  0
  -26.5060  -13.8592  -16.3785 C   0  0  0  0  0  0  0  0  0  0  0  0
  -26.7620  -15.6755  -15.0491 C   0  0  0  0  0  0  0  0  0  0  0  0
  -26.0756  -22.2967  -15.2207 C   0  0  0  0  0  0  0  0  0  0  0  0
  -25.5583  -23.0590  -17.5152 O   0  0  0  0  0  0  0  0  0  0  0  0
  -25.8969  -12.8936  -17.1887 C   0  0  0  0  0  0  0  0  0  0  0  0
  -27.8239  -13.9732  -15.9874 N   0  0  0  0  0  0  0  0  0  0  0  0
  -27.9888  -15.0686  -15.1863 C   0  0  0  0  0  0  0  0  0  0  0  0
  -26.5223  -23.0998  -16.4536 C   0  0  0  0  0  0  0  0  0  0  0  0
  1  2  4  0
  1  3  4  0
  2  4  4  0
  2  5  4  0
  3  6  4  0
  3  7  1  0
  4  8  4  0
  4  9  1  0
  5 10  4  0
  7 11  1  0
  8 12  4  0
  9 13  1  0
  9 14  1  0
 11 15  1  0
 11 16  1  0
 12 17  1  0
 13 18  1  0
 14 19  1  0
 20 15  1  1
 16 21  1  0
 17 22  4  0
 17 23  4  0
 18 24  1  0
 20 25  1  0
 20 26  1  0
 22 27  1  0
 22 28  4  0
 23 29  4  0
 23 30  4  0
 25 31  1  0
 26 32  1  0
 28 33  4  0
 29 34  4  0
 30 35  4  0
 31 36  1  0
  5  6  4  0
 10 12  4  0
 19 24  1  0
 21 25  1  0
 29 33  4  0
 32 36  1  0
 34 35  4  0
M  END
