
     RDKit          3D

 37 42  0  0  0  0  0  0  0  0999 V2000
  -12.4168  -16.0775   -9.9371 Cl  0  0  0  0  0  0  0  0  0  0  0  0
  -13.8151  -16.5653   -9.0618 C   0  0  0  0  0  0  0  0  0  0  0  0
  -15.0478  -15.9777   -9.3383 C   0  0  0  0  0  0  0  0  0  0  0  0
  -13.7062  -17.5480   -8.0881 C   0  0  0  0  0  0  0  0  0  0  0  0
  -16.1951  -16.3549   -8.6555 C   0  0  0  0  0  0  0  0  0  0  0  0
  -14.8462  -17.9404   -7.3897 C   0  0  0  0  0  0  0  0  0  0  0  0
  -17.3506  -15.7526   -8.9770 N   0  0  0  0  0  0  0  0  0  0  0  0
  -16.1041  -17.3530   -7.6570 C   0  0  0  0  0  0  0  0  0  0  0  0
  -18.4633  -16.1257   -8.3138 C   0  0  0  0  0  0  0  0  0  0  0  0
  -17.2925  -17.7266   -6.9765 C   0  0  0  0  0  0  0  0  0  0  0  0
  -18.4854  -17.0878   -7.3237 C   0  0  0  0  0  0  0  0  0  0  0  0
  -17.2415  -18.6979   -5.9494 N   0  0  0  0  0  0  0  0  0  0  0  0
  -18.2561  -18.4600   -4.9026 C   0  0  0  0  0  0  0  0  0  0  0  0
  -17.1323  -20.1067   -6.3972 C   0  0  0  0  0  0  0  0  0  0  0  0
  -19.6225  -19.1323   -5.2008 C   0  0  0  0  0  0  0  0  0  0  0  0
  -18.2270  -21.0230   -5.8003 C   0  0  0  0  0  0  0  0  0  0  0  0
  -19.5688  -20.4285   -5.9156 N   0  0  0  0  0  0  0  0  0  0  0  0
  -20.6168  -21.3651   -5.4948 C   0  0  0  0  0  0  0  0  0  0  0  0
  -21.9850  -21.0514   -6.1179 C   0  0  0  0  0  0  0  0  0  0  0  0
  -22.5289  -19.7196   -5.5798 C   0  0  0  0  0  0  0  0  0  0  0  0
  -22.6759  -18.6994   -6.6239 N   0  0  0  0  0  0  0  0  0  0  0  0
  -22.3010  -19.1847   -7.9725 C   0  0  0  0  0  0  0  0  0  0  0  0
  -24.0327  -18.1286   -6.6430 C   0  0  0  0  0  0  0  0  0  0  0  0
  -23.1156  -18.6001   -9.1570 C   0  0  0  0  0  0  0  0  0  0  0  0
  -24.1550  -16.9372   -7.6236 C   0  0  0  0  0  0  0  0  0  0  0  0
  -23.5354  -17.1989   -8.9447 N   0  0  0  0  0  0  0  0  0  0  0  0
  -22.5451  -16.2773   -9.3605 C   0  0  0  0  0  0  0  0  0  0  0  0
  -22.2108  -16.1688  -10.7362 C   0  0  0  0  0  0  0  0  0  0  0  0
  -21.8480  -15.4850   -8.4451 C   0  0  0  0  0  0  0  0  0  0  0  0
  -21.1924  -15.2584  -11.1034 C   0  0  0  0  0  0  0  0  0  0  0  0
  -22.8555  -16.9171  -11.7483 C   0  0  0  0  0  0  0  0  0  0  0  0
  -20.8716  -14.6272   -8.9108 C   0  0  0  0  0  0  0  0  0  0  0  0
  -20.5363  -14.5026  -10.2096 N   0  0  0  0  0  0  0  0  0  0  0  0
  -20.8492  -15.1335  -12.4417 C   0  0  0  0  0  0  0  0  0  0  0  0
  -22.4947  -16.7780  -13.0870 C   0  0  0  0  0  0  0  0  0  0  0  0
  -21.4887  -15.8841  -13.4264 C   0  0  0  0  0  0  0  0  0  0  0  0
  -21.0304  -15.7011  -15.0759 Cl  0  0  0  0  0  0  0  0  0  0  0  0
  1  2  1  0
  2  3  4  0
  2  4  4  0
  3  5  4  0
  4  6  4  0
  5  7  4  0
  5  8  4  0
  7  9  4  0
  8 10  4  0
  9 11  4  0
 10 12  1  0
 12 13  1  0
 12 14  1  0
 13 15  1  0
 14 16  1  0
 15 17  1  0
 17 18  1  0
 18 19  1  0
 19 20  1  0
 20 21  1  0
 21 22  1  0
 21 23  1  0
 22 24  1  0
 23 25  1  0
 24 26  1  0
 26 27  1  0
 27 28  4  0
 27 29  4  0
 28 30  4  0
 28 31  4  0
 29 32  4  0
 30 33  4  0
 30 34  4  0
 31 35  4  0
 34 36  4  0
 36 37  1  0
  6  8  4  0
 10 11  4  0
 16 17  1  0
 25 26  1  0
 32 33  4  0
 35 36  4  0
M  END
