
     RDKit          3D

 34 40  0  0  0  0  0  0  0  0999 V2000
  -27.7202  -14.1331  -10.8077 O   0  0  0  0  0  0  0  0  0  0  0  0
  -27.1918  -13.9158  -11.8890 C   0  0  0  0  0  0  0  0  0  0  0  0
  -27.8953  -13.9496  -13.0620 O   0  0  0  0  0  0  0  0  0  0  0  0
  -25.7313  -13.6405  -11.9671 C   0  0  0  0  0  0  0  0  0  0  0  0
  -27.2578  -13.8348  -14.3737 C   0  0  0  0  0  0  0  0  0  0  0  0
  -25.4373  -12.5669  -12.8366 O   0  0  0  0  0  0  0  0  0  0  0  0
  -24.9659  -13.8649  -13.2792 C   0  0  0  0  0  0  0  0  0  0  0  0
  -27.4003  -12.4549  -14.9603 C   0  0  0  0  0  0  0  0  0  0  0  0
  -25.8342  -14.5135  -14.3628 C   0  0  0  0  0  0  0  0  0  0  0  0
  -23.4261  -13.7639  -13.4683 C   0  0  0  0  0  0  0  0  0  0  0  0
  -28.5214  -11.6455  -14.9076 C   0  0  0  0  0  0  0  0  0  0  0  0
  -26.4105  -11.6557  -15.6083 C   0  0  0  0  0  0  0  0  0  0  0  0
  -25.1056  -14.4486  -15.7151 C   0  0  0  0  0  0  0  0  0  0  0  0
  -26.1130  -16.0062  -14.0083 C   0  0  0  0  0  0  0  0  0  0  0  0
  -22.6932  -13.7387  -12.1154 C   0  0  0  0  0  0  0  0  0  0  0  0
  -22.8336  -14.8511  -14.4320 C   0  0  0  0  0  0  0  0  0  0  0  0
  -23.0877  -12.3683  -14.1196 C   0  0  0  0  0  0  0  0  0  0  0  0
  -28.2971  -10.4525  -15.5104 O   0  0  0  0  0  0  0  0  0  0  0  0
  -27.0104  -10.4634  -15.9354 C   0  0  0  0  0  0  0  0  0  0  0  0
  -23.7024  -15.0831  -15.7050 C   0  0  0  0  0  0  0  0  0  0  0  0
  -22.5665  -12.7061  -11.4531 O   0  0  0  0  0  0  0  0  0  0  0  0
  -22.2374  -15.0348  -11.5167 C   0  0  0  0  0  0  0  0  0  0  0  0
  -22.1856  -16.1697  -13.8160 C   0  0  0  0  0  0  0  0  0  0  0  0
  -21.4638  -15.9073  -12.4805 C   0  0  0  0  0  0  0  0  0  0  0  0
  -21.0093  -16.6317  -14.7071 C   0  0  0  0  0  0  0  0  0  0  0  0
  -23.1405  -17.3611  -13.6534 C   0  0  0  0  0  0  0  0  0  0  0  0
  -20.0180  -15.5332  -12.8476 C   0  0  0  0  0  0  0  0  0  0  0  0
  -19.7916  -16.1176  -14.1435 O   0  0  0  0  0  0  0  0  0  0  0  0
  -20.8813  -18.1361  -14.9156 C   0  0  0  0  0  0  0  0  0  0  0  0
  -22.4695  -18.5256  -13.1379 O   0  0  0  0  0  0  0  0  0  0  0  0
  -19.6849  -14.0458  -12.9468 C   0  0  0  0  0  0  0  0  0  0  0  0
  -19.0196  -16.1833  -11.8789 C   0  0  0  0  0  0  0  0  0  0  0  0
  -21.3118  -18.9296  -13.7181 C   0  0  0  0  0  0  0  0  0  0  0  0
  -20.7071  -19.9169  -13.3195 O   0  0  0  0  0  0  0  0  0  0  0  0
  1  2  2  0
  2  3  1  0
  2  4  1  0
  3  5  1  0
  4  6  1  0
  4  7  1  0
  5  8  1  0
  5  9  1  0
  7 10  1  0
  8 11  4  0
  8 12  4  0
  9 13  1  0
  9 14  1  0
 10 15  1  0
 10 16  1  0
 10 17  1  0
 11 18  4  0
 12 19  4  0
 13 20  1  0
 15 21  2  0
 15 22  1  0
 16 23  1  0
 24 22  1  0
 23 25  1  0
 23 26  1  0
 24 27  1  0
 25 28  1  0
 25 29  1  0
 26 30  1  0
 27 31  1  0
 27 32  1  0
 29 33  1  0
 33 34  2  0
  7  6  1  0
  7  9  1  0
 16 20  1  0
 18 19  4  0
 23 24  1  0
 27 28  1  0
 30 33  1  0
M  END
