
     RDKit          3D

 27 29  0  0  0  0  0  0  0  0999 V2000
  -18.0361  -20.8591   -8.8060 O   0  0  0  0  0  0  0  0  0  0  0  0
  -18.6507  -21.1434   -9.8268 C   0  0  0  0  0  0  0  0  0  0  0  0
  -18.1345  -20.9238  -11.0948 O   0  0  0  0  0  0  0  0  0  0  0  0
  -19.9917  -21.7438   -9.7559 C   0  0  0  0  0  0  0  0  0  0  0  0
  -18.8624  -21.2528  -12.2636 C   0  0  0  0  0  0  0  0  0  0  0  0
  -20.6952  -22.0563  -10.8484 C   0  0  0  0  0  0  0  0  0  0  0  0
  -20.1409  -21.8083  -12.1759 C   0  0  0  0  0  0  0  0  0  0  0  0
  -18.2245  -20.9863  -13.4776 C   0  0  0  0  0  0  0  0  0  0  0  0
  -20.8438  -22.1037  -13.3617 C   0  0  0  0  0  0  0  0  0  0  0  0
  -18.9405  -21.3320  -14.6187 C   0  0  0  0  0  0  0  0  0  0  0  0
  -22.0964  -22.6744  -13.2563 O   0  0  0  0  0  0  0  0  0  0  0  0
  -20.2157  -21.8890  -14.6102 C   0  0  0  0  0  0  0  0  0  0  0  0
  -18.4961  -21.1822  -15.8971 O   0  0  0  0  0  0  0  0  0  0  0  0
  -22.9446  -22.3305  -14.3566 C   0  0  0  0  0  0  0  0  0  0  0  0
  -20.5399  -22.1098  -15.9789 C   0  0  0  0  0  0  0  0  0  0  0  0
  -19.4695  -21.6587  -16.7153 C   0  0  0  0  0  0  0  0  0  0  0  0
  -23.7155  -21.1052  -13.9658 C   0  0  0  0  0  0  0  0  0  0  0  0
  -23.2944  -19.8250  -13.9536 C   0  0  0  0  0  0  0  0  0  0  0  0
  -21.9252  -19.3694  -14.4124 C   0  0  0  0  0  0  0  0  0  0  0  0
  -24.2147  -18.7210  -13.4978 C   0  0  0  0  0  0  0  0  0  0  0  0
  -21.9611  -17.9429  -14.9739 C   0  0  0  0  0  0  0  0  0  0  0  0
  -21.1396  -16.9692  -14.1149 C   0  0  0  0  0  0  0  0  0  0  0  0
  -20.3390  -16.1726  -14.9987 O   0  0  0  0  0  0  0  0  0  0  0  0
  -21.9990  -16.0181  -13.2325 C   0  0  0  0  0  0  0  0  0  0  0  0
  -21.2125  -14.8487  -12.9488 O   0  0  0  0  0  0  0  0  0  0  0  0
  -23.2904  -15.5803  -13.9284 C   0  0  0  0  0  0  0  0  0  0  0  0
  -22.3343  -16.6853  -11.8900 C   0  0  0  0  0  0  0  0  0  0  0  0
  1  2  2  0
  2  3  4  0
  2  4  4  0
  3  5  4  0
  4  6  4  0
  5  7  4  0
  5  8  4  0
  7  9  4  0
  8 10  4  0
  9 11  1  0
  9 12  4  0
 10 13  4  0
 11 14  1  0
 12 15  4  0
 13 16  4  0
 14 17  1  0
 17 18  2  0
 18 19  1  0
 18 20  1  0
 19 21  1  0
 21 22  1  0
 22 23  1  0
 22 24  1  0
 24 25  1  0
 24 26  1  0
 24 27  1  0
  6  7  4  0
 10 12  4  0
 15 16  4  0
M  END
