
     RDKit          3D

 22 25  0  0  0  0  0  0  0  0999 V2000
  -15.7646  -24.0751  -19.6025 O   0  0  0  0  0  0  0  0  0  0  0  0
  -16.7196  -23.4708  -18.8392 C   0  0  0  0  0  0  0  0  0  0  0  0
  -16.4909  -22.1645  -18.4298 C   0  0  0  0  0  0  0  0  0  0  0  0
  -17.8913  -24.1314  -18.4885 C   0  0  0  0  0  0  0  0  0  0  0  0
  -17.4422  -21.5106  -17.6402 C   0  0  0  0  0  0  0  0  0  0  0  0
  -18.8505  -23.4760  -17.7103 C   0  0  0  0  0  0  0  0  0  0  0  0
  -18.6333  -22.1674  -17.2631 C   0  0  0  0  0  0  0  0  0  0  0  0
  -17.2555  -20.0761  -17.2245 C   0  0  0  0  0  0  0  0  0  0  0  0
  -19.6232  -21.3576  -16.4394 C   0  0  0  0  0  0  0  0  0  0  0  0
  -17.6134  -19.8837  -15.7512 C   0  0  0  0  0  0  0  0  0  0  0  0
  -18.8968  -20.6289  -15.2838 C   0  0  0  0  0  0  0  0  0  0  0  0
  -20.8763  -22.0689  -15.9161 C   0  0  0  0  0  0  0  0  0  0  0  0
  -18.5610  -21.5778  -14.0992 C   0  0  0  0  0  0  0  0  0  0  0  0
  -20.6186  -23.0352  -14.7655 C   0  0  0  0  0  0  0  0  0  0  0  0
  -19.6962  -22.5295  -13.6353 C   0  0  0  0  0  0  0  0  0  0  0  0
  -18.1786  -20.7731  -12.8306 C   0  0  0  0  0  0  0  0  0  0  0  0
  -20.4075  -21.7234  -12.5042 C   0  0  0  0  0  0  0  0  0  0  0  0
  -19.0413  -23.8116  -13.0279 C   0  0  0  0  0  0  0  0  0  0  0  0
  -19.2368  -21.0641  -11.7637 C   0  0  0  0  0  0  0  0  0  0  0  0
  -21.1078  -22.5895  -11.6187 O   0  0  0  0  0  0  0  0  0  0  0  0
  -21.3590  -20.6901  -12.9593 C   0  0  0  0  0  0  0  0  0  0  0  0
  -22.1477  -19.8405  -13.2764 C   0  0  0  0  0  0  0  0  0  0  0  0
  1  2  1  0
  2  3  4  0
  2  4  4  0
  3  5  4  0
  4  6  4  0
  5  7  4  0
  5  8  1  0
  7  9  1  0
  8 10  1  0
  9 11  1  0
  9 12  1  0
 11 13  1  0
 12 14  1  0
 13 15  1  0
 13 16  1  0
 15 17  1  0
 15 18  1  0
 16 19  1  0
 17 20  1  0
 17 21  1  0
 21 22  3  0
  6  7  4  0
 11 10  1  0
 14 15  1  0
 17 19  1  0
M  END
