
     RDKit          3D

 15 16  0  0  0  0  0  0  0  0999 V2000
  -30.3185   44.8139  -23.9592 O   0  0  0  0  0  0  0  0  0  0  0  0
  -30.7176   45.7365  -23.2581 C   0  0  0  0  0  0  0  0  0  0  0  0
  -30.7850   45.6450  -21.8758 O   0  0  0  0  0  0  0  0  0  0  0  0
  -31.1522   47.0063  -23.8607 C   0  0  0  0  0  0  0  0  0  0  0  0
  -31.2515   46.7195  -21.0907 C   0  0  0  0  0  0  0  0  0  0  0  0
  -31.5977   48.0307  -23.1276 C   0  0  0  0  0  0  0  0  0  0  0  0
  -31.6670   47.9190  -21.6731 C   0  0  0  0  0  0  0  0  0  0  0  0
  -31.2751   46.5228  -19.7132 C   0  0  0  0  0  0  0  0  0  0  0  0
  -32.1321   48.9549  -20.8421 C   0  0  0  0  0  0  0  0  0  0  0  0
  -31.7200   47.5540  -18.8932 C   0  0  0  0  0  0  0  0  0  0  0  0
  -32.5209   50.1110  -21.4700 O   0  0  0  0  0  0  0  0  0  0  0  0
  -32.1429   48.7651  -19.4531 C   0  0  0  0  0  0  0  0  0  0  0  0
  -33.7013   50.7767  -21.0139 C   0  0  0  0  0  0  0  0  0  0  0  0
  -33.3658   51.9231  -20.1583 C   0  0  0  0  0  0  0  0  0  0  0  0
  -33.0902   52.8599  -19.4589 C   0  0  0  0  0  0  0  0  0  0  0  0
  1  2  2  0
  2  3  4  0
  2  4  4  0
  3  5  4  0
  4  6  4  0
  5  7  4  0
  5  8  4  0
  7  9  4  0
  8 10  4  0
  9 11  1  0
  9 12  4  0
 11 13  1  0
 13 14  1  0
 14 15  3  0
  6  7  4  0
 10 12  4  0
M  END
