4wnv_ligand_89
     RDKit          2D

 25 28  0  0  1  0  0  0  0  0999 V2000
    0.0000   -0.0000   -0.0000 O   0  0  0  0  0  0  0  0  0  0  0  0
   -0.4854   -1.3969   -0.0000 C   0  0  0  0  0  0  0  0  0  0  0  0
   -1.9297   -1.8350   -0.0000 C   0  0  0  0  0  0  0  0  0  0  0  0
    0.3670   -2.6163   -0.0000 C   0  0  0  0  0  0  0  0  0  0  0  0
   -1.9652   -3.3148   -0.0000 C   0  0  0  0  0  0  0  0  0  0  0  0
   -3.2437   -1.0655   -0.0000 C   0  0  0  0  0  0  0  0  0  0  0  0
   -1.9533   -0.3315   -0.0000 C   0  0  0  0  0  0  0  0  0  0  0  0
   -0.5327   -3.8120   -0.0000 C   0  0  0  0  0  0  0  0  0  0  0  0
   -3.2674   -4.0606   -0.0000 C   0  0  0  0  0  0  0  0  0  0  0  0
   -4.5578   -1.7994   -0.0000 C   0  0  0  0  0  0  0  0  0  0  0  0
   -4.5815   -3.2911   -0.0000 C   0  0  0  0  0  0  0  0  0  0  0  0
   -3.2792   -5.5404   -0.0000 C   0  0  0  0  0  0  0  0  0  0  0  0
   -5.8837   -4.0487   -0.0000 C   0  0  0  0  0  0  0  0  0  0  0  0
   -4.5815   -6.2743   -0.0000 C   0  0  0  0  0  0  0  0  0  0  0  0
   -5.8955   -5.5404   -0.0000 C   0  0  0  0  0  0  0  0  0  0  0  0
   -7.1859   -3.2911   -0.0000 C   0  0  0  0  0  0  0  0  0  0  0  0
   -5.9074   -2.5453   -0.0000 C   0  0  0  0  0  0  0  0  0  0  0  0
   -4.6051   -7.7541   -0.0000 C   0  0  0  0  0  0  0  0  0  0  0  0
   -7.1977   -6.2743   -0.0000 C   0  0  0  0  0  0  0  0  0  0  0  0
   -8.5000   -4.0251   -0.0000 C   0  0  0  0  0  0  0  0  0  0  0  0
   -5.9074   -8.4881   -0.0000 C   0  0  0  0  0  0  0  0  0  0  0  0
   -8.5118   -5.5049   -0.0000 C   0  0  0  0  0  0  0  0  0  0  0  0
   -7.2096   -7.7305   -0.0000 C   0  0  0  0  0  0  0  0  0  0  0  0
   -8.5236   -8.4526   -0.0000 C   0  0  0  0  0  0  0  0  0  0  0  0
   -9.8259   -7.6831   -0.0000 C   0  0  0  0  0  0  0  0  0  0  0  0
  1  2  1  0
  2  3  1  0
  2  4  1  0
  3  5  1  0
  3  6  1  0
  3  7  1  0
  4  8  1  0
  5  9  1  0
  6 10  1  0
  9 11  1  0
  9 12  1  0
 11 13  1  0
 12 14  1  0
 13 15  1  0
 13 16  1  0
 13 17  1  0
 14 18  1  1
 15 19  2  0
 16 20  1  0
 18 21  1  0
 19 22  1  0
 21 23  1  0
 23 24  1  0
 24 25  1  0
  5  8  1  0
 10 11  1  0
 14 15  1  0
 20 22  1  0
M  END
>  <MolRegNo>  (1) 
115759

>  <m>  (1) 
=

>  <Value>  (1) 
100

>  <Unit>  (1) 
nM

>  <Type>  (1) 
Ki

>  <pValue>  (1) 
7

>  <Ligand Efficiency>  (1) 
0.38

>  <Binding Efficiency>  (1) 
20.31

>  <Surface Efficiency>  (1) 
34.6

>  <Assay Index>  (1) 
51103

>  <Assay Category>  (1) 


>  <Assay Organism>  (1) 


>  <Target ID>  (1) 
65

>  <Target Name>  (1) 
Cytochrome P450 19A1

>  <Target Organism>  (1) 
Homo sapiens

>  <Target Description>  (1) 
Target is a single protein chain

>  <Sequence Accession>  (1) 
P11511

>  <Reference>  (1) 
J Med Chem 39 (11), 2245-2252 (1996)

>  <Pubmed ID>  (1) 
8667367

>  <DOI>  (1) 
10.1021/jm960047o

$$$$
