4wnv_ligand_159
     RDKit          2D

 48 53  0  0  1  0  0  0  0  0999 V2000
    0.0000   -0.0000   -0.0000 O   0  0  0  0  0  0  0  0  0  0  0  0
   -1.3014    0.7641   -0.0000 C   0  0  0  0  0  0  0  0  0  0  0  0
   -2.6267    0.0597   -0.0000 N   0  0  0  0  0  0  0  0  0  0  0  0
   -1.2895    2.2805   -0.0000 C   0  0  0  0  0  0  0  0  0  0  0  0
   -2.6506   -1.4328   -0.0000 C   0  0  0  0  0  0  0  0  0  0  0  0
    0.0000    3.0446   -0.0000 N   0  0  0  0  0  0  0  0  0  0  0  0
   -2.6028    3.0446   -0.0000 C   0  0  0  0  0  0  0  0  0  0  0  0
   -2.6864   -2.9252   -0.0000 C   0  0  0  0  0  0  0  0  0  0  0  0
   -3.9759   -2.1611   -0.0000 C   0  0  0  0  0  0  0  0  0  0  0  0
   -1.3611   -2.1969   -0.0000 C   0  0  0  0  0  0  0  0  0  0  0  0
   -0.0119    4.5609   -0.0000 C   0  0  0  0  0  0  0  0  0  0  0  0
    1.3014    2.3043   -0.0000 C   0  0  0  0  0  0  0  0  0  0  0  0
   -2.6148    4.5609   -0.0000 N   0  0  0  0  0  0  0  0  0  0  0  0
   -1.3253    5.3251   -0.0000 C   0  0  0  0  0  0  0  0  0  0  0  0
    2.5909    3.0685   -0.0000 C   0  0  0  0  0  0  0  0  0  0  0  0
   -3.9281    5.3251   -0.0000 C   0  0  0  0  0  0  0  0  0  0  0  0
    2.5551    4.5848   -0.0000 O   0  0  0  0  0  0  0  0  0  0  0  0
    3.8804    2.3282   -0.0000 C   0  0  0  0  0  0  0  0  0  0  0  0
   -5.2415    4.5609   -0.0000 C   0  0  0  0  0  0  0  0  0  0  0  0
    5.1698    3.0924   -0.0000 C   0  0  0  0  0  0  0  0  0  0  0  0
   -5.2534    3.0565   -0.0000 C   0  0  0  0  0  0  0  0  0  0  0  0
   -6.5548    5.3251   -0.0000 C   0  0  0  0  0  0  0  0  0  0  0  0
    6.4593    2.3640   -0.0000 C   0  0  0  0  0  0  0  0  0  0  0  0
    5.1340    4.6087   -0.0000 C   0  0  0  0  0  0  0  0  0  0  0  0
   -6.5668    2.3163   -0.0000 N   0  0  0  0  0  0  0  0  0  0  0  0
   -7.8682    4.5848   -0.0000 C   0  0  0  0  0  0  0  0  0  0  0  0
    6.4474    0.8716   -0.0000 O   0  0  0  0  0  0  0  0  0  0  0  0
    7.7488    3.1282   -0.0000 N   0  0  0  0  0  0  0  0  0  0  0  0
    5.8743    5.9340   -0.0000 C   0  0  0  0  0  0  0  0  0  0  0  0
   -7.8801    3.0804   -0.0000 C   0  0  0  0  0  0  0  0  0  0  0  0
   -9.3248    5.0624   -0.0000 C   0  0  0  0  0  0  0  0  0  0  0  0
    9.0383    2.3879   -0.0000 C   0  0  0  0  0  0  0  0  0  0  0  0
    5.0982    7.2354   -0.0000 C   0  0  0  0  0  0  0  0  0  0  0  0
    7.3548    5.9459   -0.0000 C   0  0  0  0  0  0  0  0  0  0  0  0
   -9.3368    2.6267   -0.0000 O   0  0  0  0  0  0  0  0  0  0  0  0
  -10.2203    3.8565   -0.0000 C   0  0  0  0  0  0  0  0  0  0  0  0
    9.1816    0.9313   -0.0000 C   0  0  0  0  0  0  0  0  0  0  0  0
   10.3755    3.0207   -0.0000 C   0  0  0  0  0  0  0  0  0  0  0  0
    5.8146    8.5607   -0.0000 C   0  0  0  0  0  0  0  0  0  0  0  0
    8.0712    7.2712   -0.0000 C   0  0  0  0  0  0  0  0  0  0  0  0
   10.6143    0.6328   -0.0000 C   0  0  0  0  0  0  0  0  0  0  0  0
    8.1667   -0.1552   -0.0000 C   0  0  0  0  0  0  0  0  0  0  0  0
   10.7456    4.4893   -0.0000 O   0  0  0  0  0  0  0  0  0  0  0  0
   11.3665    1.9342   -0.0000 C   0  0  0  0  0  0  0  0  0  0  0  0
    7.3070    8.5726   -0.0000 C   0  0  0  0  0  0  0  0  0  0  0  0
   11.0680   -0.7403   -0.0000 C   0  0  0  0  0  0  0  0  0  0  0  0
    8.6204   -1.5283   -0.0000 C   0  0  0  0  0  0  0  0  0  0  0  0
   10.0651   -1.8268   -0.0000 C   0  0  0  0  0  0  0  0  0  0  0  0
  1  2  2  0
  2  3  1  0
  4  2  1  6
  3  5  1  0
  4  6  1  0
  4  7  1  0
  5  8  1  0
  5  9  1  0
  5 10  1  0
  6 11  1  0
  6 12  1  0
  7 13  1  0
 11 14  1  0
 12 15  1  0
 13 16  1  0
 15 17  1  1
 15 18  1  0
 16 19  1  0
 20 18  1  1
 19 21  2  0
 19 22  1  0
 20 23  1  0
 20 24  1  0
 21 25  1  0
 22 26  2  0
 23 27  2  0
 23 28  1  0
 24 29  1  0
 25 30  2  0
 26 31  1  0
 32 28  1  6
 29 33  2  0
 29 34  1  0
 30 35  1  0
 31 36  2  0
 32 37  1  0
 32 38  1  0
 33 39  1  0
 34 40  2  0
 37 41  2  0
 37 42  1  0
 38 43  1  6
 38 44  1  0
 39 45  2  0
 41 46  1  0
 42 47  2  0
 46 48  2  0
 13 14  1  0
 26 30  1  0
 35 36  1  0
 40 45  1  0
 41 44  1  0
 47 48  1  0
M  END
>  <MolRegNo>  (1) 
1355728

>  <m>  (1) 
=

>  <Value>  (1) 
32000

>  <Unit>  (1) 
nM

>  <Type>  (1) 
Ki

>  <pValue>  (1) 
4.5

>  <Ligand Efficiency>  (1) 
0

>  <Binding Efficiency>  (1) 
0

>  <Surface Efficiency>  (1) 
0

>  <Assay Index>  (1) 
581909

>  <Assay Category>  (1) 


>  <Assay Organism>  (1) 
Homo sapiens

>  <Target ID>  (1) 
11365

>  <Target Name>  (1) 
Cytochrome P450 2D6

>  <Target Organism>  (1) 
Homo sapiens

>  <Target Description>  (1) 
Target is a single protein chain

>  <Sequence Accession>  (1) 
P10635

>  <Reference>  (1) 
Curr Drug Metab 6 (1), 413-454 (2005)

>  <Pubmed ID>  (1) 
16248836

>  <DOI>  (1) 
10.2174/138920005774330639

$$$$
