4wnv_ligand_40
     RDKit          2D

 23 27  0  0  1  0  0  0  0  0999 V2000
    0.0000   -0.0000   -0.0000 O   0  0  0  0  0  0  0  0  0  0  0  0
    1.2461    0.7516   -0.0000 C   0  0  0  0  0  0  0  0  0  0  0  0
    2.4921    0.0396   -0.0000 C   0  0  0  0  0  0  0  0  0  0  0  0
    1.2263    2.2152   -0.0000 C   0  0  0  0  0  0  0  0  0  0  0  0
    3.6986    0.7714   -0.0000 C   0  0  0  0  0  0  0  0  0  0  0  0
    2.4724    2.9668   -0.0000 C   0  0  0  0  0  0  0  0  0  0  0  0
    1.1867    3.6986   -0.0000 C   0  0  0  0  0  0  0  0  0  0  0  0
    3.7184    2.2548   -0.0000 C   0  0  0  0  0  0  0  0  0  0  0  0
    4.9645    0.0593   -0.0000 C   0  0  0  0  0  0  0  0  0  0  0  0
    3.6789    3.7184   -0.0000 C   0  0  0  0  0  0  0  0  0  0  0  0
    4.9447    3.0064   -0.0000 C   0  0  0  0  0  0  0  0  0  0  0  0
    6.2105    0.8109   -0.0000 C   0  0  0  0  0  0  0  0  0  0  0  0
    2.6504    4.7667   -0.0000 O   0  0  0  0  0  0  0  0  0  0  0  0
    6.2105    2.2746   -0.0000 C   0  0  0  0  0  0  0  0  0  0  0  0
    4.9249    4.4898   -0.0000 C   0  0  0  0  0  0  0  0  0  0  0  0
    7.4566    3.0262   -0.0000 C   0  0  0  0  0  0  0  0  0  0  0  0
    6.1908    5.2414   -0.0000 C   0  0  0  0  0  0  0  0  0  0  0  0
    7.4566    4.5293   -0.0000 C   0  0  0  0  0  0  0  0  0  0  0  0
    8.8214    2.5910   -0.0000 C   0  0  0  0  0  0  0  0  0  0  0  0
    8.8411    5.0040   -0.0000 C   0  0  0  0  0  0  0  0  0  0  0  0
    7.4171    6.0128   -0.0000 C   0  0  0  0  0  0  0  0  0  0  0  0
    9.6916    3.7975   -0.0000 C   0  0  0  0  0  0  0  0  0  0  0  0
    9.2763    6.4083   -0.0000 O   0  0  0  0  0  0  0  0  0  0  0  0
  1  2  2  0
  2  3  1  0
  2  4  1  0
  3  5  2  0
  4  6  1  0
  4  7  1  1
  5  8  1  0
  5  9  1  0
  7 10  1  0
  8 11  1  6
  9 12  1  0
 10 13  1  1
 11 14  1  0
 11 15  1  0
 14 16  1  0
 15 17  1  0
 16 18  1  0
 16 19  1  0
 18 20  1  0
 18 21  1  1
 19 22  1  0
 20 23  2  0
  6  8  1  0
  8 10  1  0
 12 14  1  0
 17 18  1  0
 20 22  1  0
M  END
>  <MolRegNo>  (1) 
74891

>  <m>  (1) 
=

>  <Value>  (1) 
870

>  <Unit>  (1) 
nM

>  <Type>  (1) 
Ki

>  <pValue>  (1) 
6.06

>  <Ligand Efficiency>  (1) 
0.36

>  <Binding Efficiency>  (1) 
19.28

>  <Surface Efficiency>  (1) 
11.15

>  <Assay Index>  (1) 
50926

>  <Assay Category>  (1) 


>  <Assay Organism>  (1) 
Homo sapiens

>  <Target ID>  (1) 
65

>  <Target Name>  (1) 
Cytochrome P450 19A1

>  <Target Organism>  (1) 
Homo sapiens

>  <Target Description>  (1) 
Target is a single protein chain

>  <Sequence Accession>  (1) 
P11511

>  <Reference>  (1) 
J Med Chem 34 (5), 1748-1750 (1991)

>  <Pubmed ID>  (1) 
2033599

>  <DOI>  (1) 
10.1021/jm00109a033

$$$$
