4wnv_ligand_315
     RDKit          2D

 28 32  0  0  0  0  0  0  0  0999 V2000
    0.0000   -0.0000   -0.0000 O   0  0  0  0  0  0  0  0  0  0  0  0
    1.0545    0.6287   -0.0000 C   0  0  0  0  0  0  0  0  0  0  0  0
    2.3118   -0.1014   -0.0000 C   0  0  0  0  0  0  0  0  0  0  0  0
    1.0342    2.1293   -0.0000 C   0  0  0  0  0  0  0  0  0  0  0  0
    3.5691    0.6895   -0.0000 C   0  0  0  0  0  0  0  0  0  0  0  0
    2.2713    2.8796   -0.0000 C   0  0  0  0  0  0  0  0  0  0  0  0
    3.5488    2.1901   -0.0000 C   0  0  0  0  0  0  0  0  0  0  0  0
    4.8467   -0.0406   -0.0000 C   0  0  0  0  0  0  0  0  0  0  0  0
    4.8061    2.9405   -0.0000 C   0  0  0  0  0  0  0  0  0  0  0  0
    3.5083    3.4474   -0.0000 C   0  0  0  0  0  0  0  0  0  0  0  0
    6.1040    0.7503   -0.0000 C   0  0  0  0  0  0  0  0  0  0  0  0
    4.8467   -1.5615   -0.0000 C   0  0  0  0  0  0  0  0  0  0  0  0
    6.0635    2.2510   -0.0000 C   0  0  0  0  0  0  0  0  0  0  0  0
    4.7656    4.4614   -0.0000 C   0  0  0  0  0  0  0  0  0  0  0  0
    3.5083   -2.3118   -0.0000 C   0  0  0  0  0  0  0  0  0  0  0  0
    7.3208    3.0013   -0.0000 C   0  0  0  0  0  0  0  0  0  0  0  0
    6.0229    5.2320   -0.0000 C   0  0  0  0  0  0  0  0  0  0  0  0
    2.1496   -1.5412   -0.0000 C   0  0  0  0  0  0  0  0  0  0  0  0
    3.4880   -3.8328   -0.0000 C   0  0  0  0  0  0  0  0  0  0  0  0
    7.3005    4.5020   -0.0000 C   0  0  0  0  0  0  0  0  0  0  0  0
    9.8759    3.0013   -0.0000 C   0  0  0  0  0  0  0  0  0  0  0  0
    0.8112   -2.2915   -0.0000 C   0  0  0  0  0  0  0  0  0  0  0  0
    2.1496   -4.5831   -0.0000 C   0  0  0  0  0  0  0  0  0  0  0  0
    8.5578    5.2928   -0.0000 C   0  0  0  0  0  0  0  0  0  0  0  0
    7.2802    5.7593   -0.0000 C   0  0  0  0  0  0  0  0  0  0  0  0
    9.8556    4.5425   -0.0000 C   0  0  0  0  0  0  0  0  0  0  0  0
    0.7909   -3.8125   -0.0000 C   0  0  0  0  0  0  0  0  0  0  0  0
    8.5375    6.5502   -0.0000 O   0  0  0  0  0  0  0  0  0  0  0  0
  1  2  2  0
  2  3  1  0
  2  4  1  0
  3  5  2  0
  4  6  1  0
  5  7  1  0
  5  8  1  0
  7  9  1  0
  7 10  1  6
  8 11  1  0
  8 12  1  1
  9 13  1  0
  9 14  1  6
 12 15  1  0
 13 16  1  0
 14 17  1  0
 15 18  2  0
 15 19  1  0
 16 20  1  0
 16 21  1  6
 18 22  1  0
 19 23  2  0
 20 24  1  0
 20 25  1  6
 21 26  1  0
 22 27  2  0
 24 28  2  0
  6  7  1  0
 13 11  1  1
 17 20  1  0
 23 27  1  0
 24 26  1  0
M  END
>  <MolRegNo>  (1) 
2057961

>  <m>  (1) 
=

>  <Value>  (1) 
10

>  <Unit>  (1) 
nM

>  <Type>  (1) 
Ki

>  <pValue>  (1) 
8

>  <Ligand Efficiency>  (1) 
0.39

>  <Binding Efficiency>  (1) 
21.25

>  <Surface Efficiency>  (1) 
23.43

>  <Assay Index>  (1) 
985528

>  <Assay Category>  (1) 


>  <Assay Organism>  (1) 
Homo sapiens

>  <Target ID>  (1) 
65

>  <Target Name>  (1) 
Cytochrome P450 19A1

>  <Target Organism>  (1) 
Homo sapiens

>  <Target Description>  (1) 
Target is a single protein chain

>  <Sequence Accession>  (1) 
P11511

>  <Reference>  (1) 


>  <Pubmed ID>  (1) 
26469743

>  <DOI>  (1) 
10.1016/j.ejmech.2015.09.038

$$$$
