4wnv_ligand_189
     RDKit          2D

 25 27  0  0  0  0  0  0  0  0999 V2000
    0.0000   -0.0000   -0.0000 Br  0  0  0  0  0  0  0  0  0  0  0  0
    1.2861    0.7622   -0.0000 C   0  0  0  0  0  0  0  0  0  0  0  0
    2.5723    0.0238   -0.0000 C   0  0  0  0  0  0  0  0  0  0  0  0
    1.2742    2.2865   -0.0000 C   0  0  0  0  0  0  0  0  0  0  0  0
    3.8703    0.7860   -0.0000 C   0  0  0  0  0  0  0  0  0  0  0  0
    2.5604    3.0486   -0.0000 C   0  0  0  0  0  0  0  0  0  0  0  0
    3.8584    2.3103   -0.0000 C   0  0  0  0  0  0  0  0  0  0  0  0
    5.1446    3.0724   -0.0000 C   0  0  0  0  0  0  0  0  0  0  0  0
    5.1327    4.5849   -0.0000 C   0  0  0  0  0  0  0  0  0  0  0  0
    6.4307    2.3341   -0.0000 C   0  0  0  0  0  0  0  0  0  0  0  0
    3.8227    5.3470   -0.0000 O   0  0  0  0  0  0  0  0  0  0  0  0
    6.4188    5.3470   -0.0000 C   0  0  0  0  0  0  0  0  0  0  0  0
    6.4188    0.8455   -0.0000 N   0  0  0  0  0  0  0  0  0  0  0  0
    3.8108    6.8594   -0.0000 C   0  0  0  0  0  0  0  0  0  0  0  0
    7.7049    4.6087   -0.0000 C   0  0  0  0  0  0  0  0  0  0  0  0
    6.3950    6.8475   -0.0000 C   0  0  0  0  0  0  0  0  0  0  0  0
    7.6335   -0.0119   -0.0000 N   0  0  0  0  0  0  0  0  0  0  0  0
    5.2041   -0.0238   -0.0000 C   0  0  0  0  0  0  0  0  0  0  0  0
    2.5008    7.6216   -0.0000 O   0  0  0  0  0  0  0  0  0  0  0  0
    8.9911    5.3708   -0.0000 C   0  0  0  0  0  0  0  0  0  0  0  0
    7.6692    7.6216   -0.0000 C   0  0  0  0  0  0  0  0  0  0  0  0
    7.1571   -1.4290   -0.0000 N   0  0  0  0  0  0  0  0  0  0  0  0
    5.6566   -1.4410   -0.0000 C   0  0  0  0  0  0  0  0  0  0  0  0
    2.4889    9.1340   -0.0000 C   0  0  0  0  0  0  0  0  0  0  0  0
    8.9792    6.8832   -0.0000 C   0  0  0  0  0  0  0  0  0  0  0  0
  1  2  1  0
  2  3  2  0
  2  4  1  0
  3  5  1  0
  4  6  2  0
  5  7  2  0
  7  8  1  0
  8  9  1  0
  8 10  1  6
  9 11  1  6
  9 12  1  0
 10 13  1  0
 11 14  1  0
 12 15  2  0
 12 16  1  0
 13 17  1  0
 13 18  1  0
 14 19  1  0
 15 20  1  0
 16 21  2  0
 17 22  2  0
 18 23  2  0
 19 24  1  0
 20 25  2  0
  6  7  1  0
 21 25  1  0
 22 23  1  0
M  END
>  <MolRegNo>  (1) 
1589882

>  <m>  (1) 
=

>  <Value>  (1) 
111

>  <Unit>  (1) 
nM

>  <Type>  (1) 
Ki

>  <pValue>  (1) 
6.96

>  <Ligand Efficiency>  (1) 
0.38

>  <Binding Efficiency>  (1) 
17.29

>  <Surface Efficiency>  (1) 
14.14

>  <Assay Index>  (1) 
803886

>  <Assay Category>  (1) 


>  <Assay Organism>  (1) 
Homo sapiens

>  <Target ID>  (1) 
65

>  <Target Name>  (1) 
Cytochrome P450 19A1

>  <Target Organism>  (1) 
Homo sapiens

>  <Target Description>  (1) 
Target is a single protein chain

>  <Sequence Accession>  (1) 
P11511

>  <Reference>  (1) 
Bioorg Med Chem Lett 23 (22), 6060-6063 (2013)

>  <Pubmed ID>  (1) 
24113062

>  <DOI>  (1) 
10.1016/j.bmcl.2013.09.030

$$$$
