4wnv_ligand_317
     RDKit          2D

 23 26  0  0  0  0  0  0  0  0999 V2000
    0.0000   -0.0000   -0.0000 O   0  0  0  0  0  0  0  0  0  0  0  0
    1.0692    0.6374   -0.0000 C   0  0  0  0  0  0  0  0  0  0  0  0
    2.3439   -0.1028   -0.0000 C   0  0  0  0  0  0  0  0  0  0  0  0
    1.0486    2.1589   -0.0000 C   0  0  0  0  0  0  0  0  0  0  0  0
    3.6187    0.6991   -0.0000 C   0  0  0  0  0  0  0  0  0  0  0  0
    2.3028    2.9196   -0.0000 C   0  0  0  0  0  0  0  0  0  0  0  0
    3.5981    2.2206   -0.0000 C   0  0  0  0  0  0  0  0  0  0  0  0
    4.9140   -0.0411   -0.0000 C   0  0  0  0  0  0  0  0  0  0  0  0
    4.8729    2.9813   -0.0000 C   0  0  0  0  0  0  0  0  0  0  0  0
    3.5570    3.4953   -0.0000 C   0  0  0  0  0  0  0  0  0  0  0  0
    6.1888    0.7607   -0.0000 C   0  0  0  0  0  0  0  0  0  0  0  0
    4.9140   -1.5832   -0.0000 C   0  0  0  0  0  0  0  0  0  0  0  0
    6.1477    2.2822   -0.0000 C   0  0  0  0  0  0  0  0  0  0  0  0
    4.8318    4.5234   -0.0000 C   0  0  0  0  0  0  0  0  0  0  0  0
    3.8243   -2.2000   -0.0000 C   0  0  0  0  0  0  0  0  0  0  0  0
    7.4224    3.0430   -0.0000 C   0  0  0  0  0  0  0  0  0  0  0  0
    6.1066    5.3047   -0.0000 C   0  0  0  0  0  0  0  0  0  0  0  0
    7.4019    4.5645   -0.0000 C   0  0  0  0  0  0  0  0  0  0  0  0
   10.0131    3.0430   -0.0000 C   0  0  0  0  0  0  0  0  0  0  0  0
    8.6767    5.3664   -0.0000 C   0  0  0  0  0  0  0  0  0  0  0  0
    7.3813    5.8393   -0.0000 C   0  0  0  0  0  0  0  0  0  0  0  0
    9.9925    4.6056   -0.0000 C   0  0  0  0  0  0  0  0  0  0  0  0
    8.6561    6.6411   -0.0000 O   0  0  0  0  0  0  0  0  0  0  0  0
  1  2  2  0
  2  3  1  0
  2  4  1  0
  3  5  2  0
  4  6  1  0
  5  7  1  0
  5  8  1  0
  7  9  1  0
  7 10  1  6
  8 11  1  0
  8 12  1  6
  9 13  1  0
  9 14  1  6
 12 15  1  0
 13 16  1  0
 14 17  1  0
 16 18  1  0
 16 19  1  6
 18 20  1  0
 18 21  1  6
 19 22  1  0
 20 23  2  0
  6  7  1  0
 13 11  1  1
 17 18  1  0
 20 22  1  0
M  END
>  <MolRegNo>  (1) 
2057963

>  <m>  (1) 
=

>  <Value>  (1) 
1.4

>  <Unit>  (1) 
nM

>  <Type>  (1) 
Ki

>  <pValue>  (1) 
8.85

>  <Ligand Efficiency>  (1) 
0.53

>  <Binding Efficiency>  (1) 
28.15

>  <Surface Efficiency>  (1) 
25.93

>  <Assay Index>  (1) 
985528

>  <Assay Category>  (1) 


>  <Assay Organism>  (1) 
Homo sapiens

>  <Target ID>  (1) 
65

>  <Target Name>  (1) 
Cytochrome P450 19A1

>  <Target Organism>  (1) 
Homo sapiens

>  <Target Description>  (1) 
Target is a single protein chain

>  <Sequence Accession>  (1) 
P11511

>  <Reference>  (1) 


>  <Pubmed ID>  (1) 
26469743

>  <DOI>  (1) 
10.1016/j.ejmech.2015.09.038

$$$$
