4wnv_ligand_66
     RDKit          2D

 26 30  0  0  1  0  0  0  0  0999 V2000
    0.0000   -0.0000   -0.0000 O   0  0  0  0  0  0  0  0  0  0  0  0
    1.4637    0.1547   -0.0000 C   0  0  0  0  0  0  0  0  0  0  0  0
    2.3205   -1.0353   -0.0000 O   0  0  0  0  0  0  0  0  0  0  0  0
    2.0587    1.5232   -0.0000 C   0  0  0  0  0  0  0  0  0  0  0  0
    1.6898   -2.3919   -0.0000 C   0  0  0  0  0  0  0  0  0  0  0  0
    3.5581    1.6898   -0.0000 C   0  0  0  0  0  0  0  0  0  0  0  0
    1.1781    2.7489   -0.0000 C   0  0  0  0  0  0  0  0  0  0  0  0
    4.1531    3.0821   -0.0000 O   0  0  0  0  0  0  0  0  0  0  0  0
    1.7850    4.1293   -0.0000 C   0  0  0  0  0  0  0  0  0  0  0  0
   -0.3094    2.6180   -0.0000 C   0  0  0  0  0  0  0  0  0  0  0  0
    3.2606    4.3078   -0.0000 C   0  0  0  0  0  0  0  0  0  0  0  0
    0.8925    5.3669   -0.0000 C   0  0  0  0  0  0  0  0  0  0  0  0
   -1.2019    3.8318   -0.0000 C   0  0  0  0  0  0  0  0  0  0  0  0
    3.8556    5.6762   -0.0000 C   0  0  0  0  0  0  0  0  0  0  0  0
   -0.6069    5.2122   -0.0000 N   0  0  0  0  0  0  0  0  0  0  0  0
   -2.6775    3.6890   -0.0000 C   0  0  0  0  0  0  0  0  0  0  0  0
   -1.4994    6.4259   -0.0000 C   0  0  0  0  0  0  0  0  0  0  0  0
   -3.5700    2.4990   -0.0000 N   0  0  0  0  0  0  0  0  0  0  0  0
   -3.5819    4.9147   -0.0000 C   0  0  0  0  0  0  0  0  0  0  0  0
   -2.9988    6.2831   -0.0000 C   0  0  0  0  0  0  0  0  0  0  0  0
   -4.9980    2.9631   -0.0000 C   0  0  0  0  0  0  0  0  0  0  0  0
   -5.0099    4.4506   -0.0000 C   0  0  0  0  0  0  0  0  0  0  0  0
   -6.3069    2.2134   -0.0000 C   0  0  0  0  0  0  0  0  0  0  0  0
   -6.3188    5.2122   -0.0000 C   0  0  0  0  0  0  0  0  0  0  0  0
   -7.6040    2.9750   -0.0000 C   0  0  0  0  0  0  0  0  0  0  0  0
   -7.6159    4.4744   -0.0000 C   0  0  0  0  0  0  0  0  0  0  0  0
  1  2  2  0
  2  3  1  0
  2  4  1  0
  3  5  1  0
  4  6  2  0
  4  7  1  0
  6  8  1  0
  7  9  1  0
  7 10  1  1
  8 11  1  0
  9 12  1  6
 13 10  1  1
 11 14  1  6
 12 15  2  0
 13 16  1  0
 15 17  1  0
 16 18  1  0
 16 19  2  0
 17 20  1  0
 18 21  1  0
 19 22  1  0
 21 23  2  0
 22 24  2  0
 23 25  1  0
 24 26  1  0
  9 11  1  0
 13 15  1  0
 19 20  1  0
 21 22  1  0
 25 26  2  0
M  CHG  1  15   1
M  END
>  <MolRegNo>  (1) 
14940

>  <m>  (1) 
=

>  <Value>  (1) 
3200

>  <Unit>  (1) 
nM

>  <Type>  (1) 
Ki

>  <pValue>  (1) 
5.5

>  <Ligand Efficiency>  (1) 
0

>  <Binding Efficiency>  (1) 
0

>  <Surface Efficiency>  (1) 
0

>  <Assay Index>  (1) 
122804

>  <Assay Category>  (1) 


>  <Assay Organism>  (1) 
Homo sapiens

>  <Target ID>  (1) 
11365

>  <Target Name>  (1) 
Cytochrome P450 2D6

>  <Target Organism>  (1) 
Homo sapiens

>  <Target Description>  (1) 
Target is a single protein chain

>  <Sequence Accession>  (1) 
P10635

>  <Reference>  (1) 
J Med Chem 36 (9), 1136-1145 (1993)

>  <Pubmed ID>  (1) 
8487254

>  <DOI>  (1) 
10.1021/jm00061a004

$$$$
