4wnv_ligand_146
     RDKit          2D

 34 37  0  0  1  0  0  0  0  0999 V2000
    0.0000   -0.0000   -0.0000 F   0  0  0  0  0  0  0  0  0  0  0  0
    1.2963    0.7492   -0.0000 C   0  0  0  0  0  0  0  0  0  0  0  0
    2.0337   -0.5471   -0.0000 F   0  0  0  0  0  0  0  0  0  0  0  0
    0.5352    2.0693   -0.0000 F   0  0  0  0  0  0  0  0  0  0  0  0
    2.5807    1.5223   -0.0000 C   0  0  0  0  0  0  0  0  0  0  0  0
    3.8652    0.8087   -0.0000 C   0  0  0  0  0  0  0  0  0  0  0  0
    2.5688    3.0445   -0.0000 C   0  0  0  0  0  0  0  0  0  0  0  0
    5.1377    1.5698   -0.0000 C   0  0  0  0  0  0  0  0  0  0  0  0
    3.8414    3.8057   -0.0000 C   0  0  0  0  0  0  0  0  0  0  0  0
    6.4221    0.8325   -0.0000 N   0  0  0  0  0  0  0  0  0  0  0  0
    5.1258    3.0683   -0.0000 C   0  0  0  0  0  0  0  0  0  0  0  0
    3.8295    5.3161   -0.0000 C   0  0  0  0  0  0  0  0  0  0  0  0
    7.6946    1.5936   -0.0000 C   0  0  0  0  0  0  0  0  0  0  0  0
    3.8057    6.8383   -0.0000 F   0  0  0  0  0  0  0  0  0  0  0  0
    5.3161    5.3280   -0.0000 F   0  0  0  0  0  0  0  0  0  0  0  0
    2.3191    5.3161   -0.0000 F   0  0  0  0  0  0  0  0  0  0  0  0
    7.6827    3.0921   -0.0000 O   0  0  0  0  0  0  0  0  0  0  0  0
    8.9790    0.8682   -0.0000 N   0  0  0  0  0  0  0  0  0  0  0  0
   10.2635    1.6293   -0.0000 C   0  0  0  0  0  0  0  0  0  0  0  0
   10.2516    3.1397   -0.0000 C   0  0  0  0  0  0  0  0  0  0  0  0
   11.5360    0.9039   -0.0000 C   0  0  0  0  0  0  0  0  0  0  0  0
   11.5241    3.9127   -0.0000 C   0  0  0  0  0  0  0  0  0  0  0  0
   12.8085    1.6531   -0.0000 C   0  0  0  0  0  0  0  0  0  0  0  0
   12.7966    3.1635   -0.0000 N   0  0  0  0  0  0  0  0  0  0  0  0
   14.0810    3.9246   -0.0000 C   0  0  0  0  0  0  0  0  0  0  0  0
   15.3655    3.1754   -0.0000 C   0  0  0  0  0  0  0  0  0  0  0  0
   15.3417    1.7007   -0.0000 C   0  0  0  0  0  0  0  0  0  0  0  0
   16.6380    3.9365   -0.0000 C   0  0  0  0  0  0  0  0  0  0  0  0
   16.6142    0.9633   -0.0000 C   0  0  0  0  0  0  0  0  0  0  0  0
   17.9224    3.1873   -0.0000 C   0  0  0  0  0  0  0  0  0  0  0  0
   16.2336    2.5094   -0.0000 C   0  0  0  0  0  0  0  0  0  0  0  0
   17.8986    1.7126   -0.0000 C   0  0  0  0  0  0  0  0  0  0  0  0
   17.8986    4.7095   -0.0000 C   0  0  0  0  0  0  0  0  0  0  0  0
   19.1830    2.4618   -0.0000 C   0  0  0  0  0  0  0  0  0  0  0  0
  1  2  1  0
  2  3  1  0
  2  4  1  0
  2  5  1  0
  5  6  2  0
  5  7  1  0
  6  8  1  0
  7  9  2  0
  8 10  1  0
  8 11  2  0
  9 12  1  0
 10 13  1  0
 12 14  1  0
 12 15  1  0
 12 16  1  0
 13 17  2  0
 13 18  1  0
 18 19  1  0
 19 20  1  0
 19 21  1  0
 20 22  1  0
 21 23  1  0
 22 24  1  0
 24 25  1  0
 25 26  1  0
 26 27  2  0
 26 28  1  0
 27 29  1  0
 28 30  1  0
 28 31  1  6
 32 29  1  1
 30 33  1  0
 30 34  1  0
  9 11  1  0
 23 24  1  0
 30 32  1  0
 31 32  1  0
M  END
>  <MolRegNo>  (1) 
386157

>  <m>  (1) 
=

>  <Value>  (1) 
5000

>  <Unit>  (1) 
nM

>  <Type>  (1) 
Ki

>  <pValue>  (1) 
5.3

>  <Ligand Efficiency>  (1) 
0

>  <Binding Efficiency>  (1) 
0

>  <Surface Efficiency>  (1) 
0

>  <Assay Index>  (1) 
310498

>  <Assay Category>  (1) 


>  <Assay Organism>  (1) 


>  <Target ID>  (1) 
11365

>  <Target Name>  (1) 
Cytochrome P450 2D6

>  <Target Organism>  (1) 
Homo sapiens

>  <Target Description>  (1) 
Target is a single protein chain

>  <Sequence Accession>  (1) 
P10635

>  <Reference>  (1) 
Bioorg Med Chem Lett 18 (1), 147-151 (2008)

>  <Pubmed ID>  (1) 
18032038

>  <DOI>  (1) 
10.1016/j.bmcl.2007.10.109

$$$$
