4wnv_ligand_131
     RDKit          2D

 19 21  0  0  0  0  0  0  0  0999 V2000
    0.0000   -0.0000   -0.0000 O   0  0  0  0  0  0  0  0  0  0  0  0
   -0.0118   -1.4906   -0.0000 C   0  0  0  0  0  0  0  0  0  0  0  0
    1.2776   -2.2358   -0.0000 C   0  0  0  0  0  0  0  0  0  0  0  0
   -1.3249   -2.2358   -0.0000 C   0  0  0  0  0  0  0  0  0  0  0  0
    1.2658   -3.7264   -0.0000 C   0  0  0  0  0  0  0  0  0  0  0  0
    2.5671   -1.4669   -0.0000 C   0  0  0  0  0  0  0  0  0  0  0  0
   -1.3368   -3.7264   -0.0000 C   0  0  0  0  0  0  0  0  0  0  0  0
   -0.0473   -4.4717   -0.0000 O   0  0  0  0  0  0  0  0  0  0  0  0
    2.5552   -4.4717   -0.0000 C   0  0  0  0  0  0  0  0  0  0  0  0
    2.5552    0.0473   -0.0000 O   0  0  0  0  0  0  0  0  0  0  0  0
    3.8565   -2.2122   -0.0000 C   0  0  0  0  0  0  0  0  0  0  0  0
   -2.6499   -4.4717   -0.0000 C   0  0  0  0  0  0  0  0  0  0  0  0
    3.8447   -3.7027   -0.0000 C   0  0  0  0  0  0  0  0  0  0  0  0
   -2.6617   -5.9622   -0.0000 C   0  0  0  0  0  0  0  0  0  0  0  0
   -3.9630   -3.7027   -0.0000 C   0  0  0  0  0  0  0  0  0  0  0  0
    5.1342   -4.4480   -0.0000 O   0  0  0  0  0  0  0  0  0  0  0  0
   -3.9748   -6.7075   -0.0000 C   0  0  0  0  0  0  0  0  0  0  0  0
   -5.2761   -4.4480   -0.0000 C   0  0  0  0  0  0  0  0  0  0  0  0
   -5.2879   -5.9386   -0.0000 C   0  0  0  0  0  0  0  0  0  0  0  0
  1  2  2  0
  2  3  1  0
  2  4  1  0
  3  5  2  0
  3  6  1  0
  4  7  2  0
  5  8  1  0
  5  9  1  0
  6 10  1  0
  6 11  2  0
  7 12  1  0
  9 13  2  0
 12 14  2  0
 12 15  1  0
 13 16  1  0
 14 17  1  0
 15 18  2  0
 17 19  2  0
  7  8  1  0
 11 13  1  0
 18 19  1  0
M  END
>  <MolRegNo>  (1) 
17853

>  <m>  (1) 
=

>  <Value>  (1) 
2600

>  <Unit>  (1) 
nM

>  <Type>  (1) 
Ki

>  <pValue>  (1) 
5.58

>  <Ligand Efficiency>  (1) 
0.4

>  <Binding Efficiency>  (1) 
21.97

>  <Surface Efficiency>  (1) 
7.9

>  <Assay Index>  (1) 
235379

>  <Assay Category>  (1) 


>  <Assay Organism>  (1) 
Homo sapiens

>  <Target ID>  (1) 
65

>  <Target Name>  (1) 
Cytochrome P450 19A1

>  <Target Organism>  (1) 
Homo sapiens

>  <Target Description>  (1) 
Target is a single protein chain

>  <Sequence Accession>  (1) 
P11511

>  <Reference>  (1) 
J Med Chem 47 (16), 4032-4040 (2004)

>  <Pubmed ID>  (1) 
15267241

>  <DOI>  (1) 
10.1021/jm0306024

$$$$
