4wnv_ligand_60
     RDKit          2D

 25 29  0  0  1  0  0  0  0  0999 V2000
    0.0000   -0.0000   -0.0000 O   0  0  0  0  0  0  0  0  0  0  0  0
    1.4791    0.1657   -0.0000 C   0  0  0  0  0  0  0  0  0  0  0  0
    2.3192   -1.0413   -0.0000 O   0  0  0  0  0  0  0  0  0  0  0  0
    2.0707    1.5264   -0.0000 C   0  0  0  0  0  0  0  0  0  0  0  0
    3.5616    1.6684   -0.0000 C   0  0  0  0  0  0  0  0  0  0  0  0
    1.1832    2.7570   -0.0000 C   0  0  0  0  0  0  0  0  0  0  0  0
    4.4135    0.4733   -0.0000 O   0  0  0  0  0  0  0  0  0  0  0  0
    4.1650    3.0528   -0.0000 C   0  0  0  0  0  0  0  0  0  0  0  0
    1.7985    4.1295   -0.0000 C   0  0  0  0  0  0  0  0  0  0  0  0
   -0.2958    2.6150   -0.0000 C   0  0  0  0  0  0  0  0  0  0  0  0
    3.2776    4.2952   -0.0000 C   0  0  0  0  0  0  0  0  0  0  0  0
    0.9111    5.3719   -0.0000 C   0  0  0  0  0  0  0  0  0  0  0  0
   -1.1832    3.8456   -0.0000 C   0  0  0  0  0  0  0  0  0  0  0  0
   -0.5916    5.2063   -0.0000 N   0  0  0  0  0  0  0  0  0  0  0  0
   -2.6623    3.7036   -0.0000 C   0  0  0  0  0  0  0  0  0  0  0  0
   -1.4909    6.4250   -0.0000 C   0  0  0  0  0  0  0  0  0  0  0  0
   -3.5497    2.4967   -0.0000 N   0  0  0  0  0  0  0  0  0  0  0  0
   -3.5734    4.9105   -0.0000 C   0  0  0  0  0  0  0  0  0  0  0  0
   -2.9936    6.2830   -0.0000 C   0  0  0  0  0  0  0  0  0  0  0  0
   -4.9815    2.9581   -0.0000 C   0  0  0  0  0  0  0  0  0  0  0  0
   -4.9933    4.4490   -0.0000 C   0  0  0  0  0  0  0  0  0  0  0  0
   -6.3067    2.2245   -0.0000 C   0  0  0  0  0  0  0  0  0  0  0  0
   -6.3067    5.2063   -0.0000 C   0  0  0  0  0  0  0  0  0  0  0  0
   -7.6083    2.9818   -0.0000 C   0  0  0  0  0  0  0  0  0  0  0  0
   -7.6083    4.4727   -0.0000 C   0  0  0  0  0  0  0  0  0  0  0  0
  1  2  2  0
  2  3  1  0
  4  2  1  1
  4  5  1  0
  4  6  1  0
  5  7  1  1
  5  8  1  0
  6  9  1  0
  6 10  1  1
  8 11  1  0
  9 12  1  6
 13 10  1  1
 12 14  1  0
 13 15  1  0
 14 16  1  0
 15 17  1  0
 15 18  2  0
 16 19  1  0
 17 20  1  0
 18 21  1  0
 20 22  2  0
 21 23  2  0
 22 24  1  0
 23 25  1  0
  9 11  1  0
 13 14  1  0
 18 19  1  0
 20 21  1  0
 24 25  2  0
M  END
>  <MolRegNo>  (1) 
1798188

>  <m>  (1) 
=

>  <Value>  (1) 
6300

>  <Unit>  (1) 
nM

>  <Type>  (1) 
Ki

>  <pValue>  (1) 
5.2

>  <Ligand Efficiency>  (1) 
0

>  <Binding Efficiency>  (1) 
0

>  <Surface Efficiency>  (1) 
0

>  <Assay Index>  (1) 
122804

>  <Assay Category>  (1) 


>  <Assay Organism>  (1) 
Homo sapiens

>  <Target ID>  (1) 
11365

>  <Target Name>  (1) 
Cytochrome P450 2D6

>  <Target Organism>  (1) 
Homo sapiens

>  <Target Description>  (1) 
Target is a single protein chain

>  <Sequence Accession>  (1) 
P10635

>  <Reference>  (1) 
J Med Chem 36 (9), 1136-1145 (1993)

>  <Pubmed ID>  (1) 
8487254

>  <DOI>  (1) 
10.1021/jm00061a004

$$$$
