4wnv_ligand_246
     RDKit          2D

 29 33  0  0  0  0  0  0  0  0999 V2000
    0.0000   -0.0000   -0.0000 O   0  0  0  0  0  0  0  0  0  0  0  0
    1.0564    0.6298   -0.0000 C   0  0  0  0  0  0  0  0  0  0  0  0
    2.3160   -0.1016   -0.0000 C   0  0  0  0  0  0  0  0  0  0  0  0
    1.0361    2.1332   -0.0000 C   0  0  0  0  0  0  0  0  0  0  0  0
    3.5756    0.6907   -0.0000 C   0  0  0  0  0  0  0  0  0  0  0  0
    2.2754    2.8849   -0.0000 C   0  0  0  0  0  0  0  0  0  0  0  0
    3.5553    2.1941   -0.0000 C   0  0  0  0  0  0  0  0  0  0  0  0
    4.8555   -0.0406   -0.0000 C   0  0  0  0  0  0  0  0  0  0  0  0
    4.8149    2.9458   -0.0000 C   0  0  0  0  0  0  0  0  0  0  0  0
    3.5147    3.4537   -0.0000 C   0  0  0  0  0  0  0  0  0  0  0  0
    6.1151    0.7517   -0.0000 C   0  0  0  0  0  0  0  0  0  0  0  0
    4.8555   -1.5643   -0.0000 C   0  0  0  0  0  0  0  0  0  0  0  0
    6.0745    2.2551   -0.0000 C   0  0  0  0  0  0  0  0  0  0  0  0
    4.7742    4.4695   -0.0000 C   0  0  0  0  0  0  0  0  0  0  0  0
    3.5147   -2.3160   -0.0000 C   0  0  0  0  0  0  0  0  0  0  0  0
    7.3341    3.0068   -0.0000 C   0  0  0  0  0  0  0  0  0  0  0  0
    6.0338    5.2415   -0.0000 C   0  0  0  0  0  0  0  0  0  0  0  0
    3.5147   -3.8397   -0.0000 C   0  0  0  0  0  0  0  0  0  0  0  0
    7.3137    4.5101   -0.0000 C   0  0  0  0  0  0  0  0  0  0  0  0
    9.8939    3.0068   -0.0000 C   0  0  0  0  0  0  0  0  0  0  0  0
    4.8352   -4.5711   -0.0000 C   0  0  0  0  0  0  0  0  0  0  0  0
    2.1738   -4.5914   -0.0000 C   0  0  0  0  0  0  0  0  0  0  0  0
    8.5733    5.3025   -0.0000 C   0  0  0  0  0  0  0  0  0  0  0  0
    7.2934    5.7697   -0.0000 C   0  0  0  0  0  0  0  0  0  0  0  0
    9.8736    4.5508   -0.0000 C   0  0  0  0  0  0  0  0  0  0  0  0
    4.8352   -6.0948   -0.0000 C   0  0  0  0  0  0  0  0  0  0  0  0
    2.1738   -6.1151   -0.0000 C   0  0  0  0  0  0  0  0  0  0  0  0
    8.5530    6.5621   -0.0000 O   0  0  0  0  0  0  0  0  0  0  0  0
    3.4943   -6.8465   -0.0000 C   0  0  0  0  0  0  0  0  0  0  0  0
  1  2  2  0
  2  3  1  0
  2  4  1  0
  3  5  2  0
  4  6  1  0
  5  7  1  0
  5  8  1  0
  7  9  1  0
  7 10  1  6
  8 11  1  0
  8 12  1  1
  9 13  1  0
  9 14  1  6
 12 15  1  0
 13 16  1  0
 14 17  1  0
 15 18  1  0
 16 19  1  0
 16 20  1  6
 18 21  2  0
 18 22  1  0
 19 23  1  0
 19 24  1  6
 20 25  1  0
 21 26  1  0
 22 27  2  0
 23 28  2  0
 26 29  2  0
  6  7  1  0
 13 11  1  1
 17 19  1  0
 23 25  1  0
 27 29  1  0
M  END
>  <MolRegNo>  (1) 
2057942

>  <m>  (1) 
=

>  <Value>  (1) 
16

>  <Unit>  (1) 
nM

>  <Type>  (1) 
Ki

>  <pValue>  (1) 
7.8

>  <Ligand Efficiency>  (1) 
0.37

>  <Binding Efficiency>  (1) 
19.96

>  <Surface Efficiency>  (1) 
22.84

>  <Assay Index>  (1) 
985353

>  <Assay Category>  (1) 


>  <Assay Organism>  (1) 
Homo sapiens

>  <Target ID>  (1) 
65

>  <Target Name>  (1) 
Cytochrome P450 19A1

>  <Target Organism>  (1) 
Homo sapiens

>  <Target Description>  (1) 
Target is a single protein chain

>  <Sequence Accession>  (1) 
P11511

>  <Reference>  (1) 


>  <Pubmed ID>  (1) 
26469743

>  <DOI>  (1) 
10.1016/j.ejmech.2015.09.038

$$$$
