4wnv_ligand_149
     RDKit          2D

 19 21  0  0  0  0  0  0  0  0999 V2000
    0.0000   -0.0000   -0.0000 O   0  0  0  0  0  0  0  0  0  0  0  0
   -0.0122    1.2515   -0.0000 C   0  0  0  0  0  0  0  0  0  0  0  0
    1.3122    2.0291   -0.0000 C   0  0  0  0  0  0  0  0  0  0  0  0
   -1.3608    2.0291   -0.0000 C   0  0  0  0  0  0  0  0  0  0  0  0
    2.6366    1.2636   -0.0000 C   0  0  0  0  0  0  0  0  0  0  0  0
    1.3001    3.5843   -0.0000 C   0  0  0  0  0  0  0  0  0  0  0  0
   -1.3730    3.5843   -0.0000 C   0  0  0  0  0  0  0  0  0  0  0  0
   -2.7095    1.2758   -0.0000 C   0  0  0  0  0  0  0  0  0  0  0  0
    3.9610    2.0412   -0.0000 C   0  0  0  0  0  0  0  0  0  0  0  0
    2.6245   -0.2673   -0.0000 C   0  0  0  0  0  0  0  0  0  0  0  0
   -0.0486    4.3619   -0.0000 O   0  0  0  0  0  0  0  0  0  0  0  0
   -2.7217    4.3619   -0.0000 C   0  0  0  0  0  0  0  0  0  0  0  0
   -4.0582    2.0534   -0.0000 C   0  0  0  0  0  0  0  0  0  0  0  0
    5.2854    1.2758   -0.0000 C   0  0  0  0  0  0  0  0  0  0  0  0
    3.9488   -1.0328   -0.0000 C   0  0  0  0  0  0  0  0  0  0  0  0
   -4.0703    3.6086   -0.0000 C   0  0  0  0  0  0  0  0  0  0  0  0
    5.2732   -0.2552   -0.0000 C   0  0  0  0  0  0  0  0  0  0  0  0
   -5.1517    4.2404   -0.0000 O   0  0  0  0  0  0  0  0  0  0  0  0
    6.3303   -0.8627   -0.0000 O   0  0  0  0  0  0  0  0  0  0  0  0
  1  2  2  0
  2  3  1  0
  2  4  1  0
  3  5  1  0
  3  6  2  0
  4  7  2  0
  4  8  1  0
  5  9  2  0
  5 10  1  0
  6 11  1  0
  7 12  1  0
  8 13  2  0
  9 14  1  0
 10 15  2  0
 12 16  2  0
 14 17  2  0
 16 18  1  0
 17 19  1  0
  7 11  1  0
 13 16  1  0
 15 17  1  0
M  END
>  <MolRegNo>  (1) 
3281

>  <m>  (1) 
=

>  <Value>  (1) 
1.0e5

>  <Unit>  (1) 
nM

>  <Type>  (1) 
Ki

>  <pValue>  (1) 
4

>  <Ligand Efficiency>  (1) 
0.29

>  <Binding Efficiency>  (1) 
15.73

>  <Surface Efficiency>  (1) 
5.66

>  <Assay Index>  (1) 
384489

>  <Assay Category>  (1) 


>  <Assay Organism>  (1) 
Homo sapiens

>  <Target ID>  (1) 
65

>  <Target Name>  (1) 
Cytochrome P450 19A1

>  <Target Organism>  (1) 
Homo sapiens

>  <Target Description>  (1) 
Target is a single protein chain

>  <Sequence Accession>  (1) 
P11511

>  <Reference>  (1) 
Bioorg Med Chem 16 (18), 8466-8470 (2008)

>  <Pubmed ID>  (1) 
18778944

>  <DOI>  (1) 
10.1016/j.bmc.2008.08.034

$$$$
