4wnv_ligand_207
     RDKit          2D

 24 27  0  0  0  0  0  0  0  0999 V2000
    0.0000   -0.0000   -0.0000 O   0  0  0  0  0  0  0  0  0  0  0  0
    1.0656    0.6353   -0.0000 C   0  0  0  0  0  0  0  0  0  0  0  0
    2.3361   -0.1025   -0.0000 C   0  0  0  0  0  0  0  0  0  0  0  0
    1.0451    2.1517   -0.0000 C   0  0  0  0  0  0  0  0  0  0  0  0
    3.6066    0.6967   -0.0000 C   0  0  0  0  0  0  0  0  0  0  0  0
   -0.3279    2.9509   -0.0000 O   0  0  0  0  0  0  0  0  0  0  0  0
    2.2951    2.9099   -0.0000 C   0  0  0  0  0  0  0  0  0  0  0  0
    3.5861    2.2131   -0.0000 C   0  0  0  0  0  0  0  0  0  0  0  0
    4.8976   -0.0410   -0.0000 C   0  0  0  0  0  0  0  0  0  0  0  0
   -1.7008    2.1927   -0.0000 C   0  0  0  0  0  0  0  0  0  0  0  0
    4.8566    2.9714   -0.0000 C   0  0  0  0  0  0  0  0  0  0  0  0
    3.5451    3.4837   -0.0000 C   0  0  0  0  0  0  0  0  0  0  0  0
    6.1681    0.7582   -0.0000 C   0  0  0  0  0  0  0  0  0  0  0  0
   -2.7869    2.8279   -0.0000 C   0  0  0  0  0  0  0  0  0  0  0  0
    6.1271    2.2746   -0.0000 C   0  0  0  0  0  0  0  0  0  0  0  0
    4.8156    4.5083   -0.0000 C   0  0  0  0  0  0  0  0  0  0  0  0
    7.3976    3.0328   -0.0000 C   0  0  0  0  0  0  0  0  0  0  0  0
    6.0861    5.2870   -0.0000 C   0  0  0  0  0  0  0  0  0  0  0  0
    7.3771    4.5492   -0.0000 C   0  0  0  0  0  0  0  0  0  0  0  0
    9.9796    3.0328   -0.0000 C   0  0  0  0  0  0  0  0  0  0  0  0
    8.6477    5.3484   -0.0000 C   0  0  0  0  0  0  0  0  0  0  0  0
    7.3567    5.8197   -0.0000 C   0  0  0  0  0  0  0  0  0  0  0  0
    9.9591    4.5902   -0.0000 C   0  0  0  0  0  0  0  0  0  0  0  0
    8.6272    6.6189   -0.0000 O   0  0  0  0  0  0  0  0  0  0  0  0
  1  2  2  0
  2  3  1  0
  2  4  1  0
  3  5  2  0
  4  6  1  1
  4  7  1  0
  5  8  1  0
  5  9  1  0
  6 10  1  0
  8 11  1  0
  8 12  1  6
  9 13  1  0
 10 14  1  0
 11 15  1  0
 11 16  1  6
 15 17  1  0
 16 18  1  0
 17 19  1  0
 17 20  1  6
 19 21  1  0
 19 22  1  6
 20 23  1  0
 21 24  2  0
  7  8  1  0
 15 13  1  1
 18 19  1  0
 21 23  1  0
M  END
>  <MolRegNo>  (1) 
2057810

>  <m>  (1) 
=

>  <Value>  (1) 
670

>  <Unit>  (1) 
nM

>  <Type>  (1) 
Ki

>  <pValue>  (1) 
6.17

>  <Ligand Efficiency>  (1) 
0.35

>  <Binding Efficiency>  (1) 
18.68

>  <Surface Efficiency>  (1) 
14.24

>  <Assay Index>  (1) 
985352

>  <Assay Category>  (1) 


>  <Assay Organism>  (1) 
Homo sapiens

>  <Target ID>  (1) 
65

>  <Target Name>  (1) 
Cytochrome P450 19A1

>  <Target Organism>  (1) 
Homo sapiens

>  <Target Description>  (1) 
Target is a single protein chain

>  <Sequence Accession>  (1) 
P11511

>  <Reference>  (1) 


>  <Pubmed ID>  (1) 
26469743

>  <DOI>  (1) 
10.1016/j.ejmech.2015.09.038

$$$$
