4wnv_ligand_82
     RDKit          2D

 24 28  0  0  1  0  0  0  0  0999 V2000
    0.0000   -0.0000   -0.0000 S   0  0  0  0  0  0  0  0  0  0  0  0
    0.7524   -1.2899   -0.0000 C   0  0  0  0  0  0  0  0  0  0  0  0
   -0.7524   -1.2899   -0.0000 C   0  0  0  0  0  0  0  0  0  0  0  0
    2.0423   -2.0184   -0.0000 C   0  0  0  0  0  0  0  0  0  0  0  0
    2.0543   -3.4994   -0.0000 C   0  0  0  0  0  0  0  0  0  0  0  0
    2.0304   -4.9804   -0.0000 C   0  0  0  0  0  0  0  0  0  0  0  0
    3.3442   -2.7350   -0.0000 C   0  0  0  0  0  0  0  0  0  0  0  0
    0.7405   -2.7231   -0.0000 C   0  0  0  0  0  0  0  0  0  0  0  0
    0.7286   -5.7090   -0.0000 C   0  0  0  0  0  0  0  0  0  0  0  0
    3.3083   -5.7209   -0.0000 C   0  0  0  0  0  0  0  0  0  0  0  0
    4.6341   -3.4875   -0.0000 C   0  0  0  0  0  0  0  0  0  0  0  0
    3.3083   -1.2063   -0.0000 C   0  0  0  0  0  0  0  0  0  0  0  0
   -0.5613   -3.4755   -0.0000 C   0  0  0  0  0  0  0  0  0  0  0  0
   -0.5733   -4.9565   -0.0000 C   0  0  0  0  0  0  0  0  0  0  0  0
    4.6102   -4.9685   -0.0000 C   0  0  0  0  0  0  0  0  0  0  0  0
    5.9239   -2.7350   -0.0000 C   0  0  0  0  0  0  0  0  0  0  0  0
    4.6460   -0.4658   -0.0000 C   0  0  0  0  0  0  0  0  0  0  0  0
   -1.8990   -5.6851   -0.0000 O   0  0  0  0  0  0  0  0  0  0  0  0
    5.9478   -1.2302   -0.0000 C   0  0  0  0  0  0  0  0  0  0  0  0
    7.3333   -3.2128   -0.0000 C   0  0  0  0  0  0  0  0  0  0  0  0
    7.3691   -0.7644   -0.0000 C   0  0  0  0  0  0  0  0  0  0  0  0
    5.9239    0.2986   -0.0000 C   0  0  0  0  0  0  0  0  0  0  0  0
    8.2290   -2.0065   -0.0000 C   0  0  0  0  0  0  0  0  0  0  0  0
    7.8468    0.6569   -0.0000 O   0  0  0  0  0  0  0  0  0  0  0  0
  1  2  1  0
  1  3  1  0
  2  4  1  6
  5  4  1  1
  5  6  1  0
  5  7  1  0
  5  8  1  0
  6  9  2  0
  6 10  1  0
  7 11  1  0
  7 12  1  1
  8 13  1  0
  9 14  1  0
 10 15  1  0
 11 16  1  0
 12 17  1  0
 14 18  2  0
 16 19  1  0
 16 20  1  1
 19 21  1  0
 19 22  1  1
 20 23  1  0
 21 24  2  0
  2  3  1  0
 11 15  1  6
 13 14  1  0
 17 19  1  0
 21 23  1  0
M  END
>  <MolRegNo>  (1) 
1385527

>  <m>  (1) 
=

>  <Value>  (1) 
206

>  <Unit>  (1) 
nM

>  <Type>  (1) 
Ki

>  <pValue>  (1) 
6.69

>  <Ligand Efficiency>  (1) 
0.38

>  <Binding Efficiency>  (1) 
19.41

>  <Surface Efficiency>  (1) 
19.58

>  <Assay Index>  (1) 
50937

>  <Assay Category>  (1) 


>  <Assay Organism>  (1) 
Homo sapiens

>  <Target ID>  (1) 
65

>  <Target Name>  (1) 
Cytochrome P450 19A1

>  <Target Organism>  (1) 
Homo sapiens

>  <Target Description>  (1) 
Target is a single protein chain

>  <Sequence Accession>  (1) 
P11511

>  <Reference>  (1) 
J Med Chem 34 (4), 1344-1349 (1991)

>  <Pubmed ID>  (1) 
2016709

>  <DOI>  (1) 
10.1021/jm00108a016

$$$$
