4wnv_ligand_249
     RDKit          2D

 29 33  0  0  0  0  0  0  0  0999 V2000
    0.0000   -0.0000   -0.0000 O   0  0  0  0  0  0  0  0  0  0  0  0
    1.0570    0.6301   -0.0000 C   0  0  0  0  0  0  0  0  0  0  0  0
    2.3173   -0.1016   -0.0000 C   0  0  0  0  0  0  0  0  0  0  0  0
    1.0367    2.1344   -0.0000 C   0  0  0  0  0  0  0  0  0  0  0  0
    3.5776    0.6911   -0.0000 C   0  0  0  0  0  0  0  0  0  0  0  0
    2.2767    2.8865   -0.0000 C   0  0  0  0  0  0  0  0  0  0  0  0
    4.8582   -0.0407   -0.0000 C   0  0  0  0  0  0  0  0  0  0  0  0
    3.5573    2.1953   -0.0000 C   0  0  0  0  0  0  0  0  0  0  0  0
    6.1185    0.7521   -0.0000 C   0  0  0  0  0  0  0  0  0  0  0  0
    4.8582   -1.5652   -0.0000 C   0  0  0  0  0  0  0  0  0  0  0  0
    4.8176    2.9475   -0.0000 C   0  0  0  0  0  0  0  0  0  0  0  0
    3.5166    3.4556   -0.0000 C   0  0  0  0  0  0  0  0  0  0  0  0
    6.0779    2.2563   -0.0000 C   0  0  0  0  0  0  0  0  0  0  0  0
    6.1795   -2.2970   -0.0000 C   0  0  0  0  0  0  0  0  0  0  0  0
    4.7769    4.4720   -0.0000 C   0  0  0  0  0  0  0  0  0  0  0  0
    7.3382    3.0084   -0.0000 C   0  0  0  0  0  0  0  0  0  0  0  0
    6.1795   -3.8215   -0.0000 C   0  0  0  0  0  0  0  0  0  0  0  0
    6.0372    5.2444   -0.0000 C   0  0  0  0  0  0  0  0  0  0  0  0
    7.3178    4.5127   -0.0000 C   0  0  0  0  0  0  0  0  0  0  0  0
    9.8994    3.0084   -0.0000 C   0  0  0  0  0  0  0  0  0  0  0  0
    4.8379   -4.5736   -0.0000 C   0  0  0  0  0  0  0  0  0  0  0  0
    7.5008   -4.5533   -0.0000 C   0  0  0  0  0  0  0  0  0  0  0  0
    8.5781    5.3054   -0.0000 C   0  0  0  0  0  0  0  0  0  0  0  0
    7.2975    5.7730   -0.0000 C   0  0  0  0  0  0  0  0  0  0  0  0
    9.8791    4.5533   -0.0000 C   0  0  0  0  0  0  0  0  0  0  0  0
    4.8379   -6.0982   -0.0000 C   0  0  0  0  0  0  0  0  0  0  0  0
    7.5008   -6.0779   -0.0000 C   0  0  0  0  0  0  0  0  0  0  0  0
    8.5578    6.5657   -0.0000 O   0  0  0  0  0  0  0  0  0  0  0  0
    6.1592   -6.8300   -0.0000 C   0  0  0  0  0  0  0  0  0  0  0  0
  1  2  2  0
  2  3  1  0
  2  4  1  0
  3  5  2  0
  4  6  1  0
  5  7  1  0
  5  8  1  0
  7  9  2  0
  7 10  1  0
  8 11  1  0
  8 12  1  6
 13  9  1  1
 10 14  1  0
 11 15  1  6
 13 16  1  0
 14 17  1  0
 15 18  1  0
 16 19  1  0
 16 20  1  6
 17 21  2  0
 17 22  1  0
 19 23  1  0
 19 24  1  6
 20 25  1  0
 21 26  1  0
 22 27  2  0
 23 28  2  0
 26 29  2  0
  6  8  1  0
 11 13  1  0
 18 19  1  0
 23 25  1  0
 27 29  1  0
M  END
>  <MolRegNo>  (1) 
2057945

>  <m>  (1) 
=

>  <Value>  (1) 
10

>  <Unit>  (1) 
nM

>  <Type>  (1) 
Ki

>  <pValue>  (1) 
8

>  <Ligand Efficiency>  (1) 
0.38

>  <Binding Efficiency>  (1) 
20.59

>  <Surface Efficiency>  (1) 
23.43

>  <Assay Index>  (1) 
985353

>  <Assay Category>  (1) 


>  <Assay Organism>  (1) 
Homo sapiens

>  <Target ID>  (1) 
65

>  <Target Name>  (1) 
Cytochrome P450 19A1

>  <Target Organism>  (1) 
Homo sapiens

>  <Target Description>  (1) 
Target is a single protein chain

>  <Sequence Accession>  (1) 
P11511

>  <Reference>  (1) 


>  <Pubmed ID>  (1) 
26469743

>  <DOI>  (1) 
10.1016/j.ejmech.2015.09.038

$$$$
