4wnv_ligand_331
     RDKit          2D

 23 26  0  0  0  0  0  0  0  0999 V2000
    0.0000   -0.0000   -0.0000 O   0  0  0  0  0  0  0  0  0  0  0  0
   -0.0411    1.2735   -0.0000 C   0  0  0  0  0  0  0  0  0  0  0  0
   -1.3762    2.0540   -0.0000 C   0  0  0  0  0  0  0  0  0  0  0  0
    1.2324    2.0745   -0.0000 C   0  0  0  0  0  0  0  0  0  0  0  0
   -2.6907    1.2940   -0.0000 C   0  0  0  0  0  0  0  0  0  0  0  0
   -1.3967    3.5739   -0.0000 C   0  0  0  0  0  0  0  0  0  0  0  0
    1.1913    3.5945   -0.0000 C   0  0  0  0  0  0  0  0  0  0  0  0
   -2.7113    0.0616   -0.0000 O   0  0  0  0  0  0  0  0  0  0  0  0
   -4.0053    2.0745   -0.0000 C   0  0  0  0  0  0  0  0  0  0  0  0
   -0.1232    4.3339   -0.0000 C   0  0  0  0  0  0  0  0  0  0  0  0
   -2.7318    4.3134   -0.0000 C   0  0  0  0  0  0  0  0  0  0  0  0
   -1.4378    4.8474   -0.0000 C   0  0  0  0  0  0  0  0  0  0  0  0
    2.4648    4.3544   -0.0000 C   0  0  0  0  0  0  0  0  0  0  0  0
   -5.1144    1.4789   -0.0000 O   0  0  0  0  0  0  0  0  0  0  0  0
   -4.0258    3.5945   -0.0000 C   0  0  0  0  0  0  0  0  0  0  0  0
   -0.1643    5.8744   -0.0000 C   0  0  0  0  0  0  0  0  0  0  0  0
    2.4442    5.8744   -0.0000 C   0  0  0  0  0  0  0  0  0  0  0  0
    5.0528    4.3544   -0.0000 C   0  0  0  0  0  0  0  0  0  0  0  0
    1.1092    6.6549   -0.0000 C   0  0  0  0  0  0  0  0  0  0  0  0
    3.7177    6.6755   -0.0000 C   0  0  0  0  0  0  0  0  0  0  0  0
    2.4237    7.1479   -0.0000 C   0  0  0  0  0  0  0  0  0  0  0  0
    5.0323    5.9155   -0.0000 C   0  0  0  0  0  0  0  0  0  0  0  0
    3.6972    7.9489   -0.0000 O   0  0  0  0  0  0  0  0  0  0  0  0
  1  2  2  0
  2  3  1  0
  2  4  1  0
  3  5  2  0
  3  6  1  0
  7  4  1  1
  5  8  1  0
  5  9  1  0
  6 10  1  0
  6 11  1  0
  6 12  1  6
  7 13  1  0
  9 14  2  0
  9 15  1  0
 10 16  1  6
 13 17  1  0
 13 18  1  6
 16 19  1  0
 17 20  1  0
 17 21  1  6
 18 22  1  0
 20 23  2  0
  7 10  1  0
 11 15  1  0
 17 19  1  0
 20 22  1  0
M  END
>  <MolRegNo>  (1) 
2058235

>  <m>  (1) 
=

>  <Value>  (1) 
42

>  <Unit>  (1) 
nM

>  <Type>  (1) 
Ki

>  <pValue>  (1) 
7.38

>  <Ligand Efficiency>  (1) 
0.44

>  <Binding Efficiency>  (1) 
23.31

>  <Surface Efficiency>  (1) 
10.33

>  <Assay Index>  (1) 
985537

>  <Assay Category>  (1) 


>  <Assay Organism>  (1) 
Homo sapiens

>  <Target ID>  (1) 
65

>  <Target Name>  (1) 
Cytochrome P450 19A1

>  <Target Organism>  (1) 
Homo sapiens

>  <Target Description>  (1) 
Target is a single protein chain

>  <Sequence Accession>  (1) 
P11511

>  <Reference>  (1) 


>  <Pubmed ID>  (1) 
26469743

>  <DOI>  (1) 
10.1016/j.ejmech.2015.09.038

$$$$
