4wnv_ligand_227
     RDKit          2D

 22 25  0  0  0  0  0  0  0  0999 V2000
    0.0000   -0.0000   -0.0000 O   0  0  0  0  0  0  0  0  0  0  0  0
    0.0000   -1.2309   -0.0000 C   0  0  0  0  0  0  0  0  0  0  0  0
   -1.3162   -1.9865   -0.0000 C   0  0  0  0  0  0  0  0  0  0  0  0
    1.2918   -1.9743   -0.0000 C   0  0  0  0  0  0  0  0  0  0  0  0
   -1.3284   -3.4611   -0.0000 C   0  0  0  0  0  0  0  0  0  0  0  0
   -2.6080   -1.2187   -0.0000 C   0  0  0  0  0  0  0  0  0  0  0  0
   -1.3284   -0.7312   -0.0000 C   0  0  0  0  0  0  0  0  0  0  0  0
    1.2796   -3.4855   -0.0000 C   0  0  0  0  0  0  0  0  0  0  0  0
   -2.6202   -4.1801   -0.0000 C   0  0  0  0  0  0  0  0  0  0  0  0
   -3.9242   -1.9621   -0.0000 C   0  0  0  0  0  0  0  0  0  0  0  0
   -3.9120   -3.4489   -0.0000 C   0  0  0  0  0  0  0  0  0  0  0  0
   -2.6080   -5.6548   -0.0000 C   0  0  0  0  0  0  0  0  0  0  0  0
   -5.2038   -4.1680   -0.0000 C   0  0  0  0  0  0  0  0  0  0  0  0
   -3.8998   -6.4104   -0.0000 C   0  0  0  0  0  0  0  0  0  0  0  0
   -5.2160   -5.6426   -0.0000 C   0  0  0  0  0  0  0  0  0  0  0  0
   -6.5322   -3.4367   -0.0000 C   0  0  0  0  0  0  0  0  0  0  0  0
   -5.2282   -2.9127   -0.0000 C   0  0  0  0  0  0  0  0  0  0  0  0
   -3.8998   -7.9459   -0.0000 O   0  0  0  0  0  0  0  0  0  0  0  0
   -6.5322   -6.3982   -0.0000 C   0  0  0  0  0  0  0  0  0  0  0  0
   -7.7997   -4.1558   -0.0000 C   0  0  0  0  0  0  0  0  0  0  0  0
   -4.9723   -8.5675   -0.0000 C   0  0  0  0  0  0  0  0  0  0  0  0
   -7.8240   -5.6304   -0.0000 C   0  0  0  0  0  0  0  0  0  0  0  0
  1  2  2  0
  2  3  1  0
  2  4  1  0
  3  5  1  0
  3  6  1  0
  3  7  1  6
  4  8  1  0
  5  9  1  0
  6 10  1  0
  9 11  1  0
  9 12  1  1
 11 13  1  0
 12 14  1  0
 13 15  1  0
 13 16  1  0
 13 17  1  6
 14 18  1  6
 15 19  2  0
 16 20  1  0
 18 21  1  0
 19 22  1  0
  5  8  1  6
 11 10  1  6
 14 15  1  0
 20 22  1  0
M  END
>  <MolRegNo>  (1) 
2057923

>  <m>  (1) 
=

>  <Value>  (1) 
12

>  <Unit>  (1) 
nM

>  <Type>  (1) 
Ki

>  <pValue>  (1) 
7.92

>  <Ligand Efficiency>  (1) 
0.49

>  <Binding Efficiency>  (1) 
26.19

>  <Surface Efficiency>  (1) 
30.12

>  <Assay Index>  (1) 
985353

>  <Assay Category>  (1) 


>  <Assay Organism>  (1) 
Homo sapiens

>  <Target ID>  (1) 
65

>  <Target Name>  (1) 
Cytochrome P450 19A1

>  <Target Organism>  (1) 
Homo sapiens

>  <Target Description>  (1) 
Target is a single protein chain

>  <Sequence Accession>  (1) 
P11511

>  <Reference>  (1) 


>  <Pubmed ID>  (1) 
26469743

>  <DOI>  (1) 
10.1016/j.ejmech.2015.09.038

$$$$
