4wnv_ligand_160
     RDKit          2D

 26 28  0  0  0  0  0  0  0  0999 V2000
    0.0000   -0.0000   -0.0000 S   0  0  0  0  0  0  0  0  0  0  0  0
    1.0479    1.0715   -0.0000 O   0  0  0  0  0  0  0  0  0  0  0  0
    1.2834   -0.7418   -0.0000 O   0  0  0  0  0  0  0  0  0  0  0  0
   -1.5071    0.0118   -0.0000 N   0  0  0  0  0  0  0  0  0  0  0  0
   -0.4003   -1.4365   -0.0000 C   0  0  0  0  0  0  0  0  0  0  0  0
   -2.2607   -1.2716   -0.0000 C   0  0  0  0  0  0  0  0  0  0  0  0
   -2.2607    1.3187   -0.0000 C   0  0  0  0  0  0  0  0  0  0  0  0
   -3.7678   -1.2598   -0.0000 C   0  0  0  0  0  0  0  0  0  0  0  0
   -3.7678    1.3305   -0.0000 C   0  0  0  0  0  0  0  0  0  0  0  0
   -4.5213    0.0471   -0.0000 C   0  0  0  0  0  0  0  0  0  0  0  0
   -6.0284    0.0589   -0.0000 C   0  0  0  0  0  0  0  0  0  0  0  0
   -6.7820    1.3658   -0.0000 N   0  0  0  0  0  0  0  0  0  0  0  0
   -8.2891    1.3776   -0.0000 C   0  0  0  0  0  0  0  0  0  0  0  0
   -6.0402    2.6728   -0.0000 C   0  0  0  0  0  0  0  0  0  0  0  0
   -9.5960    2.1429   -0.0000 C   0  0  0  0  0  0  0  0  0  0  0  0
   -8.6894   -0.0589   -0.0000 C   0  0  0  0  0  0  0  0  0  0  0  0
   -4.5566    2.6845   -0.0000 C   0  0  0  0  0  0  0  0  0  0  0  0
  -10.9030    1.4011   -0.0000 C   0  0  0  0  0  0  0  0  0  0  0  0
  -12.2099    2.1665   -0.0000 C   0  0  0  0  0  0  0  0  0  0  0  0
  -10.9147   -0.0824   -0.0000 C   0  0  0  0  0  0  0  0  0  0  0  0
  -13.5168    1.4247   -0.0000 C   0  0  0  0  0  0  0  0  0  0  0  0
  -12.2217   -0.8124   -0.0000 C   0  0  0  0  0  0  0  0  0  0  0  0
  -13.5286   -0.0589   -0.0000 C   0  0  0  0  0  0  0  0  0  0  0  0
  -14.9533    1.8957   -0.0000 C   0  0  0  0  0  0  0  0  0  0  0  0
  -14.9651   -0.5063   -0.0000 O   0  0  0  0  0  0  0  0  0  0  0  0
  -15.8481    0.6947   -0.0000 C   0  0  0  0  0  0  0  0  0  0  0  0
  1  2  2  0
  1  3  2  0
  1  4  1  0
  1  5  1  0
  4  6  1  0
  4  7  1  0
  6  8  1  0
  7  9  1  0
  8 10  1  0
 10 11  1  0
 11 12  1  0
 13 12  1  0
 12 14  1  0
 13 15  1  0
 13 16  1  1
 14 17  1  0
 15 18  1  0
 18 19  2  0
 18 20  1  0
 19 21  1  0
 20 22  2  0
 21 23  2  0
 21 24  1  0
 23 25  1  0
 24 26  1  0
  9 10  1  0
 22 23  1  0
 25 26  1  0
M  END
>  <MolRegNo>  (1) 
1122139

>  <m>  (1) 
=

>  <Value>  (1) 
1420

>  <Unit>  (1) 
nM

>  <Type>  (1) 
Ki

>  <pValue>  (1) 
5.85

>  <Ligand Efficiency>  (1) 
0

>  <Binding Efficiency>  (1) 
0

>  <Surface Efficiency>  (1) 
0

>  <Assay Index>  (1) 
581911

>  <Assay Category>  (1) 


>  <Assay Organism>  (1) 
Homo sapiens

>  <Target ID>  (1) 
11365

>  <Target Name>  (1) 
Cytochrome P450 2D6

>  <Target Organism>  (1) 
Homo sapiens

>  <Target Description>  (1) 
Target is a single protein chain

>  <Sequence Accession>  (1) 
P10635

>  <Reference>  (1) 
Curr Drug Metab 6 (1), 413-454 (2005)

>  <Pubmed ID>  (1) 
16248836

>  <DOI>  (1) 
10.2174/138920005774330639

$$$$
