4wnv_ligand_90
     RDKit          2D

 21 24  0  0  0  0  0  0  0  0999 V2000
    0.0000   -0.0000   -0.0000 O   0  0  0  0  0  0  0  0  0  0  0  0
    0.7482   -1.2946   -0.0000 C   0  0  0  0  0  0  0  0  0  0  0  0
    2.2447   -1.2827   -0.0000 C   0  0  0  0  0  0  0  0  0  0  0  0
   -0.0119   -2.5891   -0.0000 C   0  0  0  0  0  0  0  0  0  0  0  0
    2.9811   -2.5773   -0.0000 C   0  0  0  0  0  0  0  0  0  0  0  0
    2.9811    0.0356   -0.0000 C   0  0  0  0  0  0  0  0  0  0  0  0
    0.7364   -3.8837   -0.0000 C   0  0  0  0  0  0  0  0  0  0  0  0
    2.2210   -3.8718   -0.0000 O   0  0  0  0  0  0  0  0  0  0  0  0
    4.4775   -2.5654   -0.0000 C   0  0  0  0  0  0  0  0  0  0  0  0
    4.4775    0.0475   -0.0000 C   0  0  0  0  0  0  0  0  0  0  0  0
   -0.0238   -5.1783   -0.0000 C   0  0  0  0  0  0  0  0  0  0  0  0
    5.2258   -1.2471   -0.0000 C   0  0  0  0  0  0  0  0  0  0  0  0
    5.2258   -3.8599   -0.0000 C   0  0  0  0  0  0  0  0  0  0  0  0
    0.7245   -6.4728   -0.0000 C   0  0  0  0  0  0  0  0  0  0  0  0
   -1.5440   -5.1664   -0.0000 C   0  0  0  0  0  0  0  0  0  0  0  0
    6.7223   -1.2352   -0.0000 C   0  0  0  0  0  0  0  0  0  0  0  0
    6.7223   -3.8481   -0.0000 C   0  0  0  0  0  0  0  0  0  0  0  0
   -0.0356   -7.7674   -0.0000 C   0  0  0  0  0  0  0  0  0  0  0  0
   -2.3041   -6.4610   -0.0000 C   0  0  0  0  0  0  0  0  0  0  0  0
    7.4586   -2.5298   -0.0000 C   0  0  0  0  0  0  0  0  0  0  0  0
   -1.5559   -7.7555   -0.0000 C   0  0  0  0  0  0  0  0  0  0  0  0
  1  2  2  0
  2  3  1  0
  2  4  1  0
  3  5  2  0
  3  6  1  0
  4  7  2  0
  5  8  1  0
  5  9  1  0
  6 10  2  0
  7 11  1  0
  9 12  2  0
  9 13  1  0
 11 14  2  0
 11 15  1  0
 12 16  1  0
 13 17  2  0
 14 18  1  0
 15 19  2  0
 16 20  2  0
 18 21  2  0
  7  8  1  0
 10 12  1  0
 17 20  1  0
 19 21  1  0
M  END
>  <MolRegNo>  (1) 
37987

>  <m>  (1) 
=

>  <Value>  (1) 
20

>  <Unit>  (1) 
nM

>  <Type>  (1) 
Ki

>  <pValue>  (1) 
7.7

>  <Ligand Efficiency>  (1) 
0.5

>  <Binding Efficiency>  (1) 
28.27

>  <Surface Efficiency>  (1) 
25.48

>  <Assay Index>  (1) 
50795

>  <Assay Category>  (1) 


>  <Assay Organism>  (1) 


>  <Target ID>  (1) 
65

>  <Target Name>  (1) 
Cytochrome P450 19A1

>  <Target Organism>  (1) 
Homo sapiens

>  <Target Description>  (1) 
Target is a single protein chain

>  <Sequence Accession>  (1) 
P11511

>  <Reference>  (1) 
J Med Chem 33 (11), 2933-2942 (1990)

>  <Pubmed ID>  (1) 
2231592

>  <DOI>  (1) 
10.1021/jm00173a001

$$$$
