4wnv_ligand_177
     RDKit          2D

 22 24  0  0  0  0  0  0  0  0999 V2000
    0.0000   -0.0000   -0.0000 Br  0  0  0  0  0  0  0  0  0  0  0  0
    1.2876    0.7630   -0.0000 C   0  0  0  0  0  0  0  0  0  0  0  0
    2.5752    0.0238   -0.0000 C   0  0  0  0  0  0  0  0  0  0  0  0
    1.2757    2.2890   -0.0000 C   0  0  0  0  0  0  0  0  0  0  0  0
    3.8747    0.7869   -0.0000 C   0  0  0  0  0  0  0  0  0  0  0  0
    2.5633    3.0521   -0.0000 C   0  0  0  0  0  0  0  0  0  0  0  0
    3.8628    2.3129   -0.0000 C   0  0  0  0  0  0  0  0  0  0  0  0
    5.1503    3.0759   -0.0000 C   0  0  0  0  0  0  0  0  0  0  0  0
    5.1384    4.5900   -0.0000 C   0  0  0  0  0  0  0  0  0  0  0  0
    6.4379    2.3367   -0.0000 C   0  0  0  0  0  0  0  0  0  0  0  0
    3.8270    5.3530   -0.0000 O   0  0  0  0  0  0  0  0  0  0  0  0
    6.4260    5.3530   -0.0000 C   0  0  0  0  0  0  0  0  0  0  0  0
    6.4260    0.8465   -0.0000 N   0  0  0  0  0  0  0  0  0  0  0  0
    7.7136    4.6139   -0.0000 C   0  0  0  0  0  0  0  0  0  0  0  0
    6.4022    6.8552   -0.0000 C   0  0  0  0  0  0  0  0  0  0  0  0
    7.6421   -0.0119   -0.0000 N   0  0  0  0  0  0  0  0  0  0  0  0
    5.2100   -0.0238   -0.0000 C   0  0  0  0  0  0  0  0  0  0  0  0
    9.0012    5.3769   -0.0000 C   0  0  0  0  0  0  0  0  0  0  0  0
    7.6778    7.6301   -0.0000 C   0  0  0  0  0  0  0  0  0  0  0  0
    7.1652   -1.4307   -0.0000 N   0  0  0  0  0  0  0  0  0  0  0  0
    5.6630   -1.4426   -0.0000 C   0  0  0  0  0  0  0  0  0  0  0  0
    8.9893    6.8910   -0.0000 C   0  0  0  0  0  0  0  0  0  0  0  0
  1  2  1  0
  2  3  2  0
  2  4  1  0
  3  5  1  0
  4  6  2  0
  5  7  2  0
  7  8  1  0
  8  9  1  0
  8 10  1  1
  9 11  1  6
  9 12  1  0
 10 13  1  0
 12 14  2  0
 12 15  1  0
 13 16  1  0
 13 17  1  0
 14 18  1  0
 15 19  2  0
 16 20  2  0
 17 21  2  0
 18 22  2  0
  6  7  1  0
 19 22  1  0
 20 21  1  0
M  END
>  <MolRegNo>  (1) 
1589894

>  <m>  (1) 
=

>  <Value>  (1) 
841

>  <Unit>  (1) 
nM

>  <Type>  (1) 
Ki

>  <pValue>  (1) 
6.08

>  <Ligand Efficiency>  (1) 
0.38

>  <Binding Efficiency>  (1) 
16.96

>  <Surface Efficiency>  (1) 
11.93

>  <Assay Index>  (1) 
803886

>  <Assay Category>  (1) 


>  <Assay Organism>  (1) 
Homo sapiens

>  <Target ID>  (1) 
65

>  <Target Name>  (1) 
Cytochrome P450 19A1

>  <Target Organism>  (1) 
Homo sapiens

>  <Target Description>  (1) 
Target is a single protein chain

>  <Sequence Accession>  (1) 
P11511

>  <Reference>  (1) 
Bioorg Med Chem Lett 23 (22), 6060-6063 (2013)

>  <Pubmed ID>  (1) 
24113062

>  <DOI>  (1) 
10.1016/j.bmcl.2013.09.030

$$$$
