4wnv_ligand_24
     RDKit          2D

 37 40  0  0  0  0  0  0  0  0999 V2000
    0.0000   -0.0000   -0.0000 F   0  0  0  0  0  0  0  0  0  0  0  0
    1.3077   -0.7558   -0.0000 C   0  0  0  0  0  0  0  0  0  0  0  0
    2.6034    0.0240   -0.0000 C   0  0  0  0  0  0  0  0  0  0  0  0
    1.2957   -2.2555   -0.0000 C   0  0  0  0  0  0  0  0  0  0  0  0
    3.8871   -0.7318   -0.0000 C   0  0  0  0  0  0  0  0  0  0  0  0
    2.5914   -2.9993   -0.0000 C   0  0  0  0  0  0  0  0  0  0  0  0
    3.8751   -2.2315   -0.0000 C   0  0  0  0  0  0  0  0  0  0  0  0
    5.1708   -2.9753   -0.0000 C   0  0  0  0  0  0  0  0  0  0  0  0
    5.1588   -4.4630   -0.0000 N   0  0  0  0  0  0  0  0  0  0  0  0
    6.4545   -2.2075   -0.0000 C   0  0  0  0  0  0  0  0  0  0  0  0
    3.8511   -5.2068   -0.0000 C   0  0  0  0  0  0  0  0  0  0  0  0
    6.4545   -5.2068   -0.0000 C   0  0  0  0  0  0  0  0  0  0  0  0
    6.4425   -0.6838   -0.0000 O   0  0  0  0  0  0  0  0  0  0  0  0
    7.7502   -2.9513   -0.0000 N   0  0  0  0  0  0  0  0  0  0  0  0
    3.8391   -6.6944   -0.0000 C   0  0  0  0  0  0  0  0  0  0  0  0
    6.4425   -6.6944   -0.0000 C   0  0  0  0  0  0  0  0  0  0  0  0
    9.0339   -2.1835   -0.0000 C   0  0  0  0  0  0  0  0  0  0  0  0
    5.1228   -7.4383   -0.0000 N   0  0  0  0  0  0  0  0  0  0  0  0
    9.0219   -0.6598   -0.0000 C   0  0  0  0  0  0  0  0  0  0  0  0
    5.1108   -8.9259   -0.0000 C   0  0  0  0  0  0  0  0  0  0  0  0
   10.3056    0.1200   -0.0000 C   0  0  0  0  0  0  0  0  0  0  0  0
    7.7142    0.1200   -0.0000 C   0  0  0  0  0  0  0  0  0  0  0  0
    6.3945   -9.6697   -0.0000 C   0  0  0  0  0  0  0  0  0  0  0  0
   10.2936    1.6316   -0.0000 C   0  0  0  0  0  0  0  0  0  0  0  0
    7.7022    1.6316   -0.0000 C   0  0  0  0  0  0  0  0  0  0  0  0
    7.6782   -8.9019   -0.0000 O   0  0  0  0  0  0  0  0  0  0  0  0
    6.3825  -11.1814   -0.0000 C   0  0  0  0  0  0  0  0  0  0  0  0
    8.9859    2.3994   -0.0000 C   0  0  0  0  0  0  0  0  0  0  0  0
    7.6662  -11.9132   -0.0000 O   0  0  0  0  0  0  0  0  0  0  0  0
    7.6542  -13.4129   -0.0000 C   0  0  0  0  0  0  0  0  0  0  0  0
    6.3345  -14.1567   -0.0000 C   0  0  0  0  0  0  0  0  0  0  0  0
    8.9379  -14.1567   -0.0000 C   0  0  0  0  0  0  0  0  0  0  0  0
    6.3225  -15.6443   -0.0000 C   0  0  0  0  0  0  0  0  0  0  0  0
    5.0268  -13.3889   -0.0000 C   0  0  0  0  0  0  0  0  0  0  0  0
    8.9259  -15.6443   -0.0000 C   0  0  0  0  0  0  0  0  0  0  0  0
   10.2336  -13.3889   -0.0000 C   0  0  0  0  0  0  0  0  0  0  0  0
    7.6182  -16.3882   -0.0000 C   0  0  0  0  0  0  0  0  0  0  0  0
  1  2  1  0
  2  3  2  0
  2  4  1  0
  3  5  1  0
  4  6  2  0
  5  7  2  0
  7  8  1  0
  8  9  1  0
  8 10  1  0
  9 11  1  0
  9 12  1  0
 10 13  2  0
 10 14  1  0
 11 15  1  0
 12 16  1  0
 14 17  1  0
 15 18  1  0
 17 19  1  0
 18 20  1  0
 19 21  2  0
 19 22  1  0
 20 23  1  0
 21 24  1  0
 22 25  2  0
 23 26  1  0
 23 27  1  0
 24 28  2  0
 27 29  1  0
 29 30  1  0
 30 31  2  0
 30 32  1  0
 31 33  1  0
 31 34  1  0
 32 35  2  0
 32 36  1  0
 33 37  2  0
  6  7  1  0
 16 18  1  0
 25 28  1  0
 35 37  1  0
M  END
>  <MolRegNo>  (1) 
97978

>  <m>  (1) 
=

>  <Value>  (1) 
2000

>  <Unit>  (1) 
nM

>  <Type>  (1) 
Ki

>  <pValue>  (1) 
5.7

>  <Ligand Efficiency>  (1) 
0

>  <Binding Efficiency>  (1) 
0

>  <Surface Efficiency>  (1) 
0

>  <Assay Index>  (1) 
51650

>  <Assay Category>  (1) 


>  <Assay Organism>  (1) 


>  <Target ID>  (1) 
11365

>  <Target Name>  (1) 
Cytochrome P450 2D6

>  <Target Organism>  (1) 
Homo sapiens

>  <Target Description>  (1) 
Target is a single protein chain

>  <Sequence Accession>  (1) 
P10635

>  <Reference>  (1) 
Bioorg Med Chem Lett 14 (9), 2025-2030 (2004)

>  <Pubmed ID>  (1) 
15080972

>  <DOI>  (1) 
10.1016/j.bmcl.2004.02.078

$$$$
