4wnv_ligand_199
     RDKit          2D

 25 27  0  0  0  0  0  0  0  0999 V2000
    0.0000   -0.0000   -0.0000 Br  0  0  0  0  0  0  0  0  0  0  0  0
    0.7344    1.3149   -0.0000 C   0  0  0  0  0  0  0  0  0  0  0  0
    2.2270    1.3267   -0.0000 C   0  0  0  0  0  0  0  0  0  0  0  0
   -0.0237    2.6298   -0.0000 C   0  0  0  0  0  0  0  0  0  0  0  0
    2.9614    2.6416   -0.0000 C   0  0  0  0  0  0  0  0  0  0  0  0
    0.7107    3.9446   -0.0000 C   0  0  0  0  0  0  0  0  0  0  0  0
    2.2033    3.9565   -0.0000 C   0  0  0  0  0  0  0  0  0  0  0  0
    4.4540    2.6534   -0.0000 C   0  0  0  0  0  0  0  0  0  0  0  0
    5.1884    3.9683   -0.0000 N   0  0  0  0  0  0  0  0  0  0  0  0
    4.5606    5.3543   -0.0000 N   0  0  0  0  0  0  0  0  0  0  0  0
    6.6691    4.1342   -0.0000 C   0  0  0  0  0  0  0  0  0  0  0  0
    5.6623    6.3730   -0.0000 N   0  0  0  0  0  0  0  0  0  0  0  0
    7.6642    3.0325   -0.0000 C   0  0  0  0  0  0  0  0  0  0  0  0
    6.9653    5.6149   -0.0000 C   0  0  0  0  0  0  0  0  0  0  0  0
    9.1212    3.3523   -0.0000 C   0  0  0  0  0  0  0  0  0  0  0  0
    7.1904    1.6110   -0.0000 C   0  0  0  0  0  0  0  0  0  0  0  0
    8.3275    6.2427   -0.0000 C   0  0  0  0  0  0  0  0  0  0  0  0
   10.1162    2.2507   -0.0000 C   0  0  0  0  0  0  0  0  0  0  0  0
    8.1854    0.5094   -0.0000 C   0  0  0  0  0  0  0  0  0  0  0  0
    9.4884    5.3069   -0.0000 O   0  0  0  0  0  0  0  0  0  0  0  0
    8.5526    7.7353   -0.0000 O   0  0  0  0  0  0  0  0  0  0  0  0
    9.6424    0.8292   -0.0000 C   0  0  0  0  0  0  0  0  0  0  0  0
    9.9504    8.2920   -0.0000 C   0  0  0  0  0  0  0  0  0  0  0  0
   10.6375   -0.2725   -0.0000 Cl  0  0  0  0  0  0  0  0  0  0  0  0
   10.1755    9.7846   -0.0000 C   0  0  0  0  0  0  0  0  0  0  0  0
  1  2  1  0
  2  3  2  0
  2  4  1  0
  3  5  1  0
  4  6  2  0
  5  7  2  0
  5  8  1  0
  8  9  1  0
  9 10  1  0
  9 11  1  0
 10 12  2  0
 11 13  1  0
 11 14  2  0
 13 15  2  0
 13 16  1  0
 14 17  1  0
 15 18  1  0
 16 19  2  0
 17 20  2  0
 17 21  1  0
 18 22  2  0
 21 23  1  0
 22 24  1  0
 23 25  1  0
  6  7  1  0
 12 14  1  0
 19 22  1  0
M  END
>  <MolRegNo>  (1) 
1787338

>  <m>  (1) 
=

>  <Value>  (1) 
30

>  <Unit>  (1) 
nM

>  <Type>  (1) 
Ki

>  <pValue>  (1) 
7.52

>  <Ligand Efficiency>  (1) 
0.41

>  <Binding Efficiency>  (1) 
17.88

>  <Surface Efficiency>  (1) 
13.2

>  <Assay Index>  (1) 
897972

>  <Assay Category>  (1) 


>  <Assay Organism>  (1) 
Homo sapiens

>  <Target ID>  (1) 
65

>  <Target Name>  (1) 
Cytochrome P450 19A1

>  <Target Organism>  (1) 
Homo sapiens

>  <Target Description>  (1) 
Target is a single protein chain

>  <Sequence Accession>  (1) 
P11511

>  <Reference>  (1) 
Bioorg Med Chem Lett 24 (18), 4586-4589 (2014)

>  <Pubmed ID>  (1) 
25155384

>  <DOI>  (1) 
10.1016/j.bmcl.2014.07.083

$$$$
