4wnv_ligand_55
     RDKit          2D

 14 15  0  0  0  0  0  0  0  0999 V2000
    0.0000   -0.0000   -0.0000 O   0  0  0  0  0  0  0  0  0  0  0  0
    1.2841   -0.7371   -0.0000 C   0  0  0  0  0  0  0  0  0  0  0  0
   -0.0119    1.5100   -0.0000 C   0  0  0  0  0  0  0  0  0  0  0  0
    2.5681    0.0238   -0.0000 C   0  0  0  0  0  0  0  0  0  0  0  0
    1.2722   -2.2352   -0.0000 C   0  0  0  0  0  0  0  0  0  0  0  0
    3.8641   -0.7134   -0.0000 C   0  0  0  0  0  0  0  0  0  0  0  0
    2.5562   -2.9724   -0.0000 C   0  0  0  0  0  0  0  0  0  0  0  0
    3.8522   -2.2114   -0.0000 C   0  0  0  0  0  0  0  0  0  0  0  0
    5.2908   -0.2259   -0.0000 C   0  0  0  0  0  0  0  0  0  0  0  0
    5.2789   -2.6751   -0.0000 N   0  0  0  0  0  0  0  0  0  0  0  0
    6.1706   -1.4386   -0.0000 C   0  0  0  0  0  0  0  0  0  0  0  0
    5.7426    1.2246   -0.0000 C   0  0  0  0  0  0  0  0  0  0  0  0
    7.2050    1.5575   -0.0000 C   0  0  0  0  0  0  0  0  0  0  0  0
    7.6568    2.9842   -0.0000 O   0  0  0  0  0  0  0  0  0  0  0  0
  1  2  1  0
  1  3  1  0
  2  4  2  0
  2  5  1  0
  4  6  1  0
  5  7  2  0
  6  8  2  0
  6  9  1  0
  8 10  1  0
  9 11  2  0
  9 12  1  0
 12 13  1  0
 13 14  1  0
  7  8  1  0
 10 11  1  0
M  END
>  <MolRegNo>  (1) 
14833

>  <m>  (1) 
=

>  <Value>  (1) 
1.0e5

>  <Unit>  (1) 
nM

>  <Type>  (1) 
Ki

>  <pValue>  (1) 
4

>  <Ligand Efficiency>  (1) 
0

>  <Binding Efficiency>  (1) 
0

>  <Surface Efficiency>  (1) 
0

>  <Assay Index>  (1) 
122804

>  <Assay Category>  (1) 


>  <Assay Organism>  (1) 
Homo sapiens

>  <Target ID>  (1) 
11365

>  <Target Name>  (1) 
Cytochrome P450 2D6

>  <Target Organism>  (1) 
Homo sapiens

>  <Target Description>  (1) 
Target is a single protein chain

>  <Sequence Accession>  (1) 
P10635

>  <Reference>  (1) 
J Med Chem 36 (9), 1136-1145 (1993)

>  <Pubmed ID>  (1) 
8487254

>  <DOI>  (1) 
10.1021/jm00061a004

$$$$
