4wnv_ligand_10
     RDKit          2D

 36 39  0  0  0  0  0  0  0  0999 V2000
    0.0000   -0.0000   -0.0000 Cl  0  0  0  0  0  0  0  0  0  0  0  0
   -1.3272    0.7653   -0.0000 C   0  0  0  0  0  0  0  0  0  0  0  0
   -2.6425    0.0239   -0.0000 C   0  0  0  0  0  0  0  0  0  0  0  0
   -1.3392    2.2838   -0.0000 C   0  0  0  0  0  0  0  0  0  0  0  0
   -3.9459    0.7892   -0.0000 C   0  0  0  0  0  0  0  0  0  0  0  0
   -2.6425    3.0491   -0.0000 C   0  0  0  0  0  0  0  0  0  0  0  0
   -3.9578    2.3077   -0.0000 C   0  0  0  0  0  0  0  0  0  0  0  0
   -5.2731    3.0730   -0.0000 C   0  0  0  0  0  0  0  0  0  0  0  0
   -5.2851    4.5796   -0.0000 O   0  0  0  0  0  0  0  0  0  0  0  0
   -6.5764    2.3316   -0.0000 N   0  0  0  0  0  0  0  0  0  0  0  0
   -7.8798    3.0969   -0.0000 C   0  0  0  0  0  0  0  0  0  0  0  0
   -6.5884    0.8490   -0.0000 C   0  0  0  0  0  0  0  0  0  0  0  0
   -7.8917    4.6035   -0.0000 C   0  0  0  0  0  0  0  0  0  0  0  0
   -9.1951    2.3556   -0.0000 C   0  0  0  0  0  0  0  0  0  0  0  0
   -7.8917    0.1076   -0.0000 C   0  0  0  0  0  0  0  0  0  0  0  0
   -5.2970    0.1076   -0.0000 C   0  0  0  0  0  0  0  0  0  0  0  0
   -9.1951    5.3688   -0.0000 C   0  0  0  0  0  0  0  0  0  0  0  0
  -10.5104    3.1208   -0.0000 C   0  0  0  0  0  0  0  0  0  0  0  0
   -7.9037   -1.3870   -0.0000 C   0  0  0  0  0  0  0  0  0  0  0  0
   -5.3090   -1.3870   -0.0000 C   0  0  0  0  0  0  0  0  0  0  0  0
  -10.5223    4.6274   -0.0000 C   0  0  0  0  0  0  0  0  0  0  0  0
   -6.6243   -2.1284   -0.0000 N   0  0  0  0  0  0  0  0  0  0  0  0
  -11.8496    5.3927   -0.0000 F   0  0  0  0  0  0  0  0  0  0  0  0
   -6.6362   -3.6111   -0.0000 C   0  0  0  0  0  0  0  0  0  0  0  0
   -5.3568   -4.3285   -0.0000 C   0  0  0  0  0  0  0  0  0  0  0  0
   -4.0774   -3.5872   -0.0000 O   0  0  0  0  0  0  0  0  0  0  0  0
   -5.3688   -5.8351   -0.0000 C   0  0  0  0  0  0  0  0  0  0  0  0
   -4.0894   -6.5764   -0.0000 O   0  0  0  0  0  0  0  0  0  0  0  0
   -4.1013   -8.0591   -0.0000 C   0  0  0  0  0  0  0  0  0  0  0  0
   -2.8219   -8.8005   -0.0000 C   0  0  0  0  0  0  0  0  0  0  0  0
   -5.4046   -8.8005   -0.0000 C   0  0  0  0  0  0  0  0  0  0  0  0
   -2.8338  -10.2951   -0.0000 C   0  0  0  0  0  0  0  0  0  0  0  0
   -5.4166  -10.2951   -0.0000 C   0  0  0  0  0  0  0  0  0  0  0  0
   -4.1372  -11.0365   -0.0000 C   0  0  0  0  0  0  0  0  0  0  0  0
   -4.1252  -12.5192   -0.0000 O   0  0  0  0  0  0  0  0  0  0  0  0
   -2.8458  -13.2366   -0.0000 C   0  0  0  0  0  0  0  0  0  0  0  0
  1  2  1  0
  2  3  2  0
  2  4  1  0
  3  5  1  0
  4  6  2  0
  5  7  2  0
  7  8  1  0
  8  9  2  0
  8 10  1  0
 10 11  1  0
 10 12  1  0
 11 13  2  0
 11 14  1  0
 12 15  1  0
 12 16  1  0
 13 17  1  0
 14 18  2  0
 15 19  1  0
 16 20  1  0
 17 21  2  0
 19 22  1  0
 21 23  1  0
 22 24  1  0
 24 25  1  0
 25 26  1  0
 25 27  1  0
 27 28  1  0
 28 29  1  0
 29 30  2  0
 29 31  1  0
 30 32  1  0
 31 33  2  0
 32 34  2  0
 34 35  1  0
 35 36  1  0
  6  7  1  0
 18 21  1  0
 20 22  1  0
 33 34  1  0
M  END
>  <MolRegNo>  (1) 
97406

>  <m>  (1) 
=

>  <Value>  (1) 
2000

>  <Unit>  (1) 
nM

>  <Type>  (1) 
Ki

>  <pValue>  (1) 
5.7

>  <Ligand Efficiency>  (1) 
0

>  <Binding Efficiency>  (1) 
0

>  <Surface Efficiency>  (1) 
0

>  <Assay Index>  (1) 
51650

>  <Assay Category>  (1) 


>  <Assay Organism>  (1) 


>  <Target ID>  (1) 
11365

>  <Target Name>  (1) 
Cytochrome P450 2D6

>  <Target Organism>  (1) 
Homo sapiens

>  <Target Description>  (1) 
Target is a single protein chain

>  <Sequence Accession>  (1) 
P10635

>  <Reference>  (1) 
Bioorg Med Chem Lett 14 (9), 2025-2030 (2004)

>  <Pubmed ID>  (1) 
15080972

>  <DOI>  (1) 
10.1016/j.bmcl.2004.02.078

$$$$
