4wnv_ligand_165
     RDKit          2D

 24 26  0  0  0  0  0  0  0  0999 V2000
    0.0000   -0.0000   -0.0000 O   0  0  0  0  0  0  0  0  0  0  0  0
    1.2885   -0.7397   -0.0000 C   0  0  0  0  0  0  0  0  0  0  0  0
   -1.3124   -0.7397   -0.0000 C   0  0  0  0  0  0  0  0  0  0  0  0
    2.5770    0.0239   -0.0000 C   0  0  0  0  0  0  0  0  0  0  0  0
    1.2766   -2.2310   -0.0000 C   0  0  0  0  0  0  0  0  0  0  0  0
   -2.6247    0.0239   -0.0000 O   0  0  0  0  0  0  0  0  0  0  0  0
    3.8655   -0.7278   -0.0000 C   0  0  0  0  0  0  0  0  0  0  0  0
    2.5651    1.5271   -0.0000 C   0  0  0  0  0  0  0  0  0  0  0  0
   -0.0358   -2.9707   -0.0000 C   0  0  0  0  0  0  0  0  0  0  0  0
    2.5651   -2.9707   -0.0000 C   0  0  0  0  0  0  0  0  0  0  0  0
   -3.9371   -0.7158   -0.0000 C   0  0  0  0  0  0  0  0  0  0  0  0
    5.1540    0.0358   -0.0000 C   0  0  0  0  0  0  0  0  0  0  0  0
    3.8535    2.2907   -0.0000 C   0  0  0  0  0  0  0  0  0  0  0  0
   -1.3481   -2.2191   -0.0000 C   0  0  0  0  0  0  0  0  0  0  0  0
   -0.0358   -4.4739   -0.0000 C   0  0  0  0  0  0  0  0  0  0  0  0
    2.5531   -4.4620   -0.0000 N   0  0  0  0  0  0  0  0  0  0  0  0
    5.1420    1.5510   -0.0000 C   0  0  0  0  0  0  0  0  0  0  0  0
   -2.6605   -2.9588   -0.0000 C   0  0  0  0  0  0  0  0  0  0  0  0
   -1.3481   -5.2136   -0.0000 C   0  0  0  0  0  0  0  0  0  0  0  0
    3.7581   -5.3210   -0.0000 N   0  0  0  0  0  0  0  0  0  0  0  0
    1.3243   -5.3210   -0.0000 C   0  0  0  0  0  0  0  0  0  0  0  0
   -2.6724   -4.4501   -0.0000 C   0  0  0  0  0  0  0  0  0  0  0  0
    3.2809   -6.7407   -0.0000 N   0  0  0  0  0  0  0  0  0  0  0  0
    1.7776   -6.7407   -0.0000 C   0  0  0  0  0  0  0  0  0  0  0  0
  2  1  1  6
  1  3  1  0
  2  4  1  0
  2  5  1  0
  3  6  1  0
  4  7  2  0
  4  8  1  0
  5  9  1  0
  5 10  1  6
  6 11  1  0
  7 12  1  0
  8 13  2  0
  9 14  2  0
  9 15  1  0
 10 16  1  0
 12 17  2  0
 14 18  1  0
 15 19  2  0
 16 20  1  0
 16 21  1  0
 18 22  2  0
 20 23  2  0
 21 24  2  0
 13 17  1  0
 19 22  1  0
 23 24  1  0
M  END
>  <MolRegNo>  (1) 
1271151

>  <m>  (1) 
=

>  <Value>  (1) 
790

>  <Unit>  (1) 
nM

>  <Type>  (1) 
Ki

>  <pValue>  (1) 
6.1

>  <Ligand Efficiency>  (1) 
0.35

>  <Binding Efficiency>  (1) 
18.87

>  <Surface Efficiency>  (1) 
12.41

>  <Assay Index>  (1) 
630342

>  <Assay Category>  (1) 


>  <Assay Organism>  (1) 
Homo sapiens

>  <Target ID>  (1) 
65

>  <Target Name>  (1) 
Cytochrome P450 19A1

>  <Target Organism>  (1) 
Homo sapiens

>  <Target Description>  (1) 
Target is a single protein chain

>  <Sequence Accession>  (1) 
P11511

>  <Reference>  (1) 
Bioorg Med Chem Lett 22 (1), 718-722 (2012)

>  <Pubmed ID>  (1) 
22079757

>  <DOI>  (1) 
10.1016/j.bmcl.2011.10.039

$$$$
