4wnv_ligand_181
     RDKit          2D

 25 27  0  0  0  0  0  0  0  0999 V2000
    0.0000   -0.0000   -0.0000 Br  0  0  0  0  0  0  0  0  0  0  0  0
   -1.3085   -0.7494   -0.0000 C   0  0  0  0  0  0  0  0  0  0  0  0
   -1.3204   -2.2363   -0.0000 C   0  0  0  0  0  0  0  0  0  0  0  0
   -2.6288    0.0119   -0.0000 C   0  0  0  0  0  0  0  0  0  0  0  0
   -2.6288   -2.9738   -0.0000 C   0  0  0  0  0  0  0  0  0  0  0  0
   -3.9254   -0.7375   -0.0000 C   0  0  0  0  0  0  0  0  0  0  0  0
   -3.9373   -2.2125   -0.0000 C   0  0  0  0  0  0  0  0  0  0  0  0
   -5.2457   -2.9500   -0.0000 C   0  0  0  0  0  0  0  0  0  0  0  0
   -6.5542   -2.1887   -0.0000 O   0  0  0  0  0  0  0  0  0  0  0  0
   -5.2576   -4.4369   -0.0000 C   0  0  0  0  0  0  0  0  0  0  0  0
   -6.5661   -0.6780   -0.0000 C   0  0  0  0  0  0  0  0  0  0  0  0
   -6.5661   -5.1743   -0.0000 C   0  0  0  0  0  0  0  0  0  0  0  0
   -3.9729   -5.1743   -0.0000 C   0  0  0  0  0  0  0  0  0  0  0  0
   -7.8745    0.0833   -0.0000 O   0  0  0  0  0  0  0  0  0  0  0  0
   -7.8745   -4.4131   -0.0000 C   0  0  0  0  0  0  0  0  0  0  0  0
   -6.5780   -6.6731   -0.0000 C   0  0  0  0  0  0  0  0  0  0  0  0
   -3.9848   -6.6612   -0.0000 N   0  0  0  0  0  0  0  0  0  0  0  0
   -7.8864    1.5939   -0.0000 C   0  0  0  0  0  0  0  0  0  0  0  0
   -9.1830   -5.1506   -0.0000 C   0  0  0  0  0  0  0  0  0  0  0  0
   -7.8983   -7.4106   -0.0000 C   0  0  0  0  0  0  0  0  0  0  0  0
   -2.7715   -7.5177   -0.0000 N   0  0  0  0  0  0  0  0  0  0  0  0
   -5.1981   -7.5296   -0.0000 C   0  0  0  0  0  0  0  0  0  0  0  0
   -9.1949   -6.6493   -0.0000 C   0  0  0  0  0  0  0  0  0  0  0  0
   -3.2474   -8.9332   -0.0000 N   0  0  0  0  0  0  0  0  0  0  0  0
   -4.7461   -8.9451   -0.0000 C   0  0  0  0  0  0  0  0  0  0  0  0
  1  2  1  0
  2  3  2  0
  2  4  1  0
  3  5  1  0
  4  6  2  0
  5  7  2  0
  7  8  1  0
  8  9  1  6
  8 10  1  0
  9 11  1  0
 10 12  1  0
 10 13  1  1
 11 14  1  0
 12 15  2  0
 12 16  1  0
 13 17  1  0
 14 18  1  0
 15 19  1  0
 16 20  2  0
 17 21  1  0
 17 22  1  0
 19 23  2  0
 21 24  2  0
 22 25  2  0
  6  7  1  0
 20 23  1  0
 24 25  1  0
M  END
>  <MolRegNo>  (1) 
1589890

>  <m>  (1) 
=

>  <Value>  (1) 
70

>  <Unit>  (1) 
nM

>  <Type>  (1) 
Ki

>  <pValue>  (1) 
7.16

>  <Ligand Efficiency>  (1) 
0.39

>  <Binding Efficiency>  (1) 
17.79

>  <Surface Efficiency>  (1) 
14.55

>  <Assay Index>  (1) 
803886

>  <Assay Category>  (1) 


>  <Assay Organism>  (1) 
Homo sapiens

>  <Target ID>  (1) 
65

>  <Target Name>  (1) 
Cytochrome P450 19A1

>  <Target Organism>  (1) 
Homo sapiens

>  <Target Description>  (1) 
Target is a single protein chain

>  <Sequence Accession>  (1) 
P11511

>  <Reference>  (1) 
Bioorg Med Chem Lett 23 (22), 6060-6063 (2013)

>  <Pubmed ID>  (1) 
24113062

>  <DOI>  (1) 
10.1016/j.bmcl.2013.09.030

$$$$
