4wnv_ligand_52
     RDKit          2D

 11 12  0  0  0  0  0  0  0  0999 V2000
    0.0000   -0.0000   -0.0000 O   0  0  0  0  0  0  0  0  0  0  0  0
   -1.3028    0.7511   -0.0000 C   0  0  0  0  0  0  0  0  0  0  0  0
    1.2793    0.7511   -0.0000 C   0  0  0  0  0  0  0  0  0  0  0  0
   -2.6055    0.0235   -0.0000 C   0  0  0  0  0  0  0  0  0  0  0  0
   -1.3145    2.2534   -0.0000 C   0  0  0  0  0  0  0  0  0  0  0  0
   -3.9083    0.7746   -0.0000 C   0  0  0  0  0  0  0  0  0  0  0  0
   -2.6173    3.0163   -0.0000 C   0  0  0  0  0  0  0  0  0  0  0  0
   -3.9200    2.2769   -0.0000 C   0  0  0  0  0  0  0  0  0  0  0  0
   -5.3402    0.3286   -0.0000 C   0  0  0  0  0  0  0  0  0  0  0  0
   -5.3519    2.7464   -0.0000 N   0  0  0  0  0  0  0  0  0  0  0  0
   -6.2322    1.5492   -0.0000 C   0  0  0  0  0  0  0  0  0  0  0  0
  1  2  1  0
  1  3  1  0
  2  4  2  0
  2  5  1  0
  4  6  1  0
  5  7  2  0
  6  8  2  0
  6  9  1  0
  8 10  1  0
  9 11  2  0
  7  8  1  0
 10 11  1  0
M  END
>  <MolRegNo>  (1) 
15252

>  <m>  (1) 
=

>  <Value>  (1) 
0

>  <Unit>  (1) 
nM

>  <Type>  (1) 
Ki

>  <pValue>  (1) 
0

>  <Ligand Efficiency>  (1) 
0

>  <Binding Efficiency>  (1) 
0

>  <Surface Efficiency>  (1) 
0

>  <Assay Index>  (1) 
122805

>  <Assay Category>  (1) 


>  <Assay Organism>  (1) 
Homo sapiens

>  <Target ID>  (1) 
11365

>  <Target Name>  (1) 
Cytochrome P450 2D6

>  <Target Organism>  (1) 
Homo sapiens

>  <Target Description>  (1) 
Target is a single protein chain

>  <Sequence Accession>  (1) 
P10635

>  <Reference>  (1) 
J Med Chem 36 (9), 1136-1145 (1993)

>  <Pubmed ID>  (1) 
8487254

>  <DOI>  (1) 
10.1021/jm00061a004

$$$$
