4wnv_ligand_392
     RDKit          2D

 20 22  0  0  0  0  0  0  0  0999 V2000
    0.0000   -0.0000   -0.0000 N   0  0  0  0  0  0  0  0  0  0  0  0
   -0.4733   -1.4080   -0.0000 N   0  0  0  0  0  0  0  0  0  0  0  0
   -1.2305    0.8874   -0.0000 N   0  0  0  0  0  0  0  0  0  0  0  0
   -1.9759   -1.3962   -0.0000 C   0  0  0  0  0  0  0  0  0  0  0  0
   -2.4374    0.0118   -0.0000 C   0  0  0  0  0  0  0  0  0  0  0  0
   -1.2424    2.3900   -0.0000 C   0  0  0  0  0  0  0  0  0  0  0  0
   -2.5439    3.1473   -0.0000 C   0  0  0  0  0  0  0  0  0  0  0  0
   -3.8454    2.4137   -0.0000 C   0  0  0  0  0  0  0  0  0  0  0  0
   -2.5557    4.6499   -0.0000 C   0  0  0  0  0  0  0  0  0  0  0  0
   -5.1469    3.1710   -0.0000 C   0  0  0  0  0  0  0  0  0  0  0  0
   -3.8454    0.9466   -0.0000 C   0  0  0  0  0  0  0  0  0  0  0  0
   -3.8572    5.4072   -0.0000 C   0  0  0  0  0  0  0  0  0  0  0  0
   -6.4484    2.4374   -0.0000 C   0  0  0  0  0  0  0  0  0  0  0  0
   -5.1469    0.2011   -0.0000 C   0  0  0  0  0  0  0  0  0  0  0  0
   -5.1706    4.6736   -0.0000 C   0  0  0  0  0  0  0  0  0  0  0  0
   -3.8690    6.9217   -0.0000 C   0  0  0  0  0  0  0  0  0  0  0  0
   -6.4602    0.9584   -0.0000 C   0  0  0  0  0  0  0  0  0  0  0  0
   -6.4721    5.4309   -0.0000 C   0  0  0  0  0  0  0  0  0  0  0  0
   -5.1706    7.6789   -0.0000 C   0  0  0  0  0  0  0  0  0  0  0  0
   -6.4839    6.9453   -0.0000 C   0  0  0  0  0  0  0  0  0  0  0  0
  1  2  2  0
  1  3  1  0
  2  4  1  0
  3  5  1  0
  3  6  1  0
  6  7  1  0
  7  8  1  0
  7  9  2  0
  8 10  2  0
  8 11  1  0
  9 12  1  0
 10 13  1  0
 11 14  2  0
 12 15  2  0
 12 16  1  0
 13 17  2  0
 15 18  1  0
 16 19  2  0
 18 20  2  0
  4  5  2  0
 14 17  1  0
 19 20  1  0
M  END
>  <MolRegNo>  (1) 
2361539

>  <m>  (1) 
=

>  <Value>  (1) 
180

>  <Unit>  (1) 
nM

>  <Type>  (1) 
Ki

>  <pValue>  (1) 
6.75

>  <Ligand Efficiency>  (1) 
0.46

>  <Binding Efficiency>  (1) 
25.81

>  <Surface Efficiency>  (1) 
21.96

>  <Assay Index>  (1) 
1255696

>  <Assay Category>  (1) 


>  <Assay Organism>  (1) 
Homo sapiens

>  <Target ID>  (1) 
65

>  <Target Name>  (1) 
Cytochrome P450 19A1

>  <Target Organism>  (1) 
Homo sapiens

>  <Target Description>  (1) 
Target is a single protein chain

>  <Sequence Accession>  (1) 
P11511

>  <Reference>  (1) 
Bioorg Med Chem Lett 29 (11), 1395-1398 (2019)

>  <Pubmed ID>  (1) 
30952594

>  <DOI>  (1) 
10.1016/j.bmcl.2019.03.033

$$$$
