4wnv_ligand_395
     RDKit          2D

 27 30  0  0  0  0  0  0  0  0999 V2000
    0.0000   -0.0000   -0.0000 O   0  0  0  0  0  0  0  0  0  0  0  0
    1.4929    0.1659   -0.0000 C   0  0  0  0  0  0  0  0  0  0  0  0
    2.3578   -1.0426   -0.0000 O   0  0  0  0  0  0  0  0  0  0  0  0
    2.0971    1.5521   -0.0000 C   0  0  0  0  0  0  0  0  0  0  0  0
    1.7298   -2.4052   -0.0000 C   0  0  0  0  0  0  0  0  0  0  0  0
    3.5782    1.7061   -0.0000 C   0  0  0  0  0  0  0  0  0  0  0  0
    1.2085    2.7843   -0.0000 C   0  0  0  0  0  0  0  0  0  0  0  0
    4.1824    3.0924   -0.0000 O   0  0  0  0  0  0  0  0  0  0  0  0
    1.8009    4.1469   -0.0000 C   0  0  0  0  0  0  0  0  0  0  0  0
   -0.2725    2.6540   -0.0000 C   0  0  0  0  0  0  0  0  0  0  0  0
    5.6635    3.2583   -0.0000 C   0  0  0  0  0  0  0  0  0  0  0  0
    0.9242    5.3672   -0.0000 C   0  0  0  0  0  0  0  0  0  0  0  0
    3.2820    4.3128   -0.0000 C   0  0  0  0  0  0  0  0  0  0  0  0
   -1.1493    3.8625   -0.0000 C   0  0  0  0  0  0  0  0  0  0  0  0
   -0.5569    5.2251   -0.0000 N   0  0  0  0  0  0  0  0  0  0  0  0
    3.8862    5.6990   -0.0000 C   0  0  0  0  0  0  0  0  0  0  0  0
   -2.6303    3.7085   -0.0000 C   0  0  0  0  0  0  0  0  0  0  0  0
   -1.4455    6.4336   -0.0000 C   0  0  0  0  0  0  0  0  0  0  0  0
   -3.5071    2.5000   -0.0000 N   0  0  0  0  0  0  0  0  0  0  0  0
   -3.5189    4.9170   -0.0000 C   0  0  0  0  0  0  0  0  0  0  0  0
   -2.9384    6.2914   -0.0000 C   0  0  0  0  0  0  0  0  0  0  0  0
   -4.9526    2.9739   -0.0000 C   0  0  0  0  0  0  0  0  0  0  0  0
   -4.9526    4.4668   -0.0000 C   0  0  0  0  0  0  0  0  0  0  0  0
   -6.2677    2.2393   -0.0000 C   0  0  0  0  0  0  0  0  0  0  0  0
   -6.2677    5.2369   -0.0000 C   0  0  0  0  0  0  0  0  0  0  0  0
   -7.5829    2.9976   -0.0000 C   0  0  0  0  0  0  0  0  0  0  0  0
   -7.5829    4.4905   -0.0000 C   0  0  0  0  0  0  0  0  0  0  0  0
  1  2  2  0
  2  3  1  0
  2  4  1  0
  3  5  1  0
  4  6  2  0
  7  4  1  1
  6  8  1  0
  7  9  1  0
  7 10  1  0
  8 11  1  0
  9 12  1  0
  9 13  1  1
 14 10  1  1
 12 15  1  0
 13 16  1  0
 14 17  1  0
 15 18  1  0
 17 19  1  0
 17 20  2  0
 18 21  1  0
 19 22  1  0
 20 23  1  0
 22 24  2  0
 23 25  2  0
 24 26  1  0
 25 27  1  0
 14 15  1  0
 20 21  1  0
 22 23  1  0
 26 27  2  0
M  END
>  <MolRegNo>  (1) 
92230

>  <m>  (1) 
=

>  <Value>  (1) 
2800

>  <Unit>  (1) 
nM

>  <Type>  (1) 
Ki

>  <pValue>  (1) 
5.55

>  <Ligand Efficiency>  (1) 
0

>  <Binding Efficiency>  (1) 
0

>  <Surface Efficiency>  (1) 
0

>  <Assay Index>  (1) 
1479365

>  <Assay Category>  (1) 


>  <Assay Organism>  (1) 
Homo sapiens

>  <Target ID>  (1) 
11365

>  <Target Name>  (1) 
Cytochrome P450 2D6

>  <Target Organism>  (1) 
Homo sapiens

>  <Target Description>  (1) 
Target is a single protein chain

>  <Sequence Accession>  (1) 
P10635

>  <Reference>  (1) 
J Nat Prod 84 (4.0), 1104-1112 (2021)

>  <Pubmed ID>  (1) 
33620222

>  <DOI>  (1) 
10.1021/acs.jnatprod.0c01163

$$$$
