4wnv_ligand_353
     RDKit          2D

 22 25  0  0  0  0  0  0  0  0999 V2000
    0.0000   -0.0000   -0.0000 S   0  0  0  0  0  0  0  0  0  0  0  0
    1.0627   -0.5927   -0.0000 C   0  0  0  0  0  0  0  0  0  0  0  0
    2.3706    0.2044   -0.0000 C   0  0  0  0  0  0  0  0  0  0  0  0
    2.3502   -1.2671   -0.0000 C   0  0  0  0  0  0  0  0  0  0  0  0
    3.6377    0.9605   -0.0000 C   0  0  0  0  0  0  0  0  0  0  0  0
    1.0423    0.9401   -0.0000 C   0  0  0  0  0  0  0  0  0  0  0  0
    1.0423   -2.0232   -0.0000 C   0  0  0  0  0  0  0  0  0  0  0  0
    3.6377   -2.0028   -0.0000 C   0  0  0  0  0  0  0  0  0  0  0  0
    4.9048    0.2657   -0.0000 C   0  0  0  0  0  0  0  0  0  0  0  0
    3.5968    2.4933   -0.0000 C   0  0  0  0  0  0  0  0  0  0  0  0
   -0.2452    0.2248   -0.0000 C   0  0  0  0  0  0  0  0  0  0  0  0
   -0.2657   -1.2466   -0.0000 C   0  0  0  0  0  0  0  0  0  0  0  0
    4.9048   -1.2058   -0.0000 C   0  0  0  0  0  0  0  0  0  0  0  0
    6.1718    1.0218   -0.0000 C   0  0  0  0  0  0  0  0  0  0  0  0
    4.8639    3.2698   -0.0000 C   0  0  0  0  0  0  0  0  0  0  0  0
   -1.3692   -1.8393   -0.0000 O   0  0  0  0  0  0  0  0  0  0  0  0
    6.1514    2.5341   -0.0000 C   0  0  0  0  0  0  0  0  0  0  0  0
    8.7468    1.0218   -0.0000 C   0  0  0  0  0  0  0  0  0  0  0  0
    7.4185    3.3312   -0.0000 C   0  0  0  0  0  0  0  0  0  0  0  0
    6.1310    3.8012   -0.0000 C   0  0  0  0  0  0  0  0  0  0  0  0
    8.7264    2.5750   -0.0000 C   0  0  0  0  0  0  0  0  0  0  0  0
    7.3980    4.5982   -0.0000 O   0  0  0  0  0  0  0  0  0  0  0  0
  1  2  1  0
  3  2  1  6
  3  4  1  0
  3  5  1  0
  3  6  1  0
  4  7  2  0
  4  8  1  0
  5  9  1  0
  5 10  1  6
  6 11  1  0
  7 12  1  0
  8 13  1  0
  9 14  1  0
 10 15  1  0
 12 16  2  0
 14 17  1  0
 14 18  1  6
 17 19  1  0
 17 20  1  6
 18 21  1  0
 19 22  2  0
  9 13  1  1
 11 12  1  0
 15 17  1  0
 19 21  1  0
M  END
>  <MolRegNo>  (1) 
2058089

>  <m>  (1) 
=

>  <Value>  (1) 
34

>  <Unit>  (1) 
nM

>  <Type>  (1) 
Ki

>  <pValue>  (1) 
7.47

>  <Ligand Efficiency>  (1) 
0.46

>  <Binding Efficiency>  (1) 
23.45

>  <Surface Efficiency>  (1) 
21.88

>  <Assay Index>  (1) 
985551

>  <Assay Category>  (1) 


>  <Assay Organism>  (1) 
Homo sapiens

>  <Target ID>  (1) 
65

>  <Target Name>  (1) 
Cytochrome P450 19A1

>  <Target Organism>  (1) 
Homo sapiens

>  <Target Description>  (1) 
Target is a single protein chain

>  <Sequence Accession>  (1) 
P11511

>  <Reference>  (1) 


>  <Pubmed ID>  (1) 
26469743

>  <DOI>  (1) 
10.1016/j.ejmech.2015.09.038

$$$$
