4wnv_ligand_389
     RDKit          2D

 21 23  0  0  0  0  0  0  0  0999 V2000
    0.0000   -0.0000   -0.0000 Br  0  0  0  0  0  0  0  0  0  0  0  0
    1.2839    0.7608   -0.0000 C   0  0  0  0  0  0  0  0  0  0  0  0
    1.2720    2.2706   -0.0000 C   0  0  0  0  0  0  0  0  0  0  0  0
    2.5796    0.0238   -0.0000 C   0  0  0  0  0  0  0  0  0  0  0  0
    2.5559    3.0314   -0.0000 C   0  0  0  0  0  0  0  0  0  0  0  0
    3.8635    0.7965   -0.0000 C   0  0  0  0  0  0  0  0  0  0  0  0
    3.8397    2.2943   -0.0000 C   0  0  0  0  0  0  0  0  0  0  0  0
    5.1236    3.0551   -0.0000 C   0  0  0  0  0  0  0  0  0  0  0  0
    5.1117    4.5649   -0.0000 C   0  0  0  0  0  0  0  0  0  0  0  0
    6.4075    2.3181   -0.0000 C   0  0  0  0  0  0  0  0  0  0  0  0
    3.8041    5.3257   -0.0000 C   0  0  0  0  0  0  0  0  0  0  0  0
    6.3956    0.8321   -0.0000 N   0  0  0  0  0  0  0  0  0  0  0  0
    2.4845    4.5887   -0.0000 C   0  0  0  0  0  0  0  0  0  0  0  0
    3.7922    6.8473   -0.0000 C   0  0  0  0  0  0  0  0  0  0  0  0
    7.6081   -0.0357   -0.0000 N   0  0  0  0  0  0  0  0  0  0  0  0
    5.1830   -0.0476   -0.0000 C   0  0  0  0  0  0  0  0  0  0  0  0
    1.1769    5.3495   -0.0000 C   0  0  0  0  0  0  0  0  0  0  0  0
    2.4845    7.6081   -0.0000 C   0  0  0  0  0  0  0  0  0  0  0  0
    7.1326   -1.4503   -0.0000 N   0  0  0  0  0  0  0  0  0  0  0  0
    5.6348   -1.4622   -0.0000 C   0  0  0  0  0  0  0  0  0  0  0  0
    1.1650    6.8711   -0.0000 C   0  0  0  0  0  0  0  0  0  0  0  0
  1  2  1  0
  2  3  2  0
  2  4  1  0
  3  5  1  0
  4  6  2  0
  5  7  2  0
  7  8  1  0
  8  9  2  0
  8 10  1  0
  9 11  1  0
 10 12  1  0
 11 13  2  0
 11 14  1  0
 12 15  1  0
 12 16  1  0
 13 17  1  0
 14 18  2  0
 15 19  2  0
 16 20  2  0
 17 21  2  0
  6  7  1  0
 18 21  1  0
 19 20  1  0
M  END
>  <MolRegNo>  (1) 
2432885

>  <m>  (1) 
=

>  <Value>  (1) 
125

>  <Unit>  (1) 
nM

>  <Type>  (1) 
Ki

>  <pValue>  (1) 
6.9

>  <Ligand Efficiency>  (1) 
0.45

>  <Binding Efficiency>  (1) 
20.29

>  <Surface Efficiency>  (1) 
22.48

>  <Assay Index>  (1) 
1255696

>  <Assay Category>  (1) 


>  <Assay Organism>  (1) 
Homo sapiens

>  <Target ID>  (1) 
65

>  <Target Name>  (1) 
Cytochrome P450 19A1

>  <Target Organism>  (1) 
Homo sapiens

>  <Target Description>  (1) 
Target is a single protein chain

>  <Sequence Accession>  (1) 
P11511

>  <Reference>  (1) 
Bioorg Med Chem Lett 29 (11), 1395-1398 (2019)

>  <Pubmed ID>  (1) 
30952594

>  <DOI>  (1) 
10.1016/j.bmcl.2019.03.033

$$$$
