4wnv_ligand_37
     RDKit          2D

 22 25  0  0  1  0  0  0  0  0999 V2000
    0.0000   -0.0000   -0.0000 O   0  0  0  0  0  0  0  0  0  0  0  0
    1.3112    0.7987   -0.0000 C   0  0  0  0  0  0  0  0  0  0  0  0
    2.5629    0.0238   -0.0000 C   0  0  0  0  0  0  0  0  0  0  0  0
    1.2993    2.2649   -0.0000 C   0  0  0  0  0  0  0  0  0  0  0  0
    3.8741    0.8225   -0.0000 C   0  0  0  0  0  0  0  0  0  0  0  0
    2.5510    3.0516   -0.0000 C   0  0  0  0  0  0  0  0  0  0  0  0
    3.8622    2.2887   -0.0000 C   0  0  0  0  0  0  0  0  0  0  0  0
    5.1496    0.0477   -0.0000 C   0  0  0  0  0  0  0  0  0  0  0  0
    5.1377    3.0754   -0.0000 C   0  0  0  0  0  0  0  0  0  0  0  0
    3.7907    3.8145   -0.0000 C   0  0  0  0  0  0  0  0  0  0  0  0
    6.4012    0.7867   -0.0000 C   0  0  0  0  0  0  0  0  0  0  0  0
    6.3893    2.3125   -0.0000 C   0  0  0  0  0  0  0  0  0  0  0  0
    5.1257    4.5536   -0.0000 C   0  0  0  0  0  0  0  0  0  0  0  0
    7.7005    3.0993   -0.0000 C   0  0  0  0  0  0  0  0  0  0  0  0
    6.4370    5.3642   -0.0000 C   0  0  0  0  0  0  0  0  0  0  0  0
    7.6886    4.6132   -0.0000 C   0  0  0  0  0  0  0  0  0  0  0  0
    8.9879    2.3364   -0.0000 C   0  0  0  0  0  0  0  0  0  0  0  0
    8.9760    5.3642   -0.0000 O   0  0  0  0  0  0  0  0  0  0  0  0
    7.6648    6.1390   -0.0000 C   0  0  0  0  0  0  0  0  0  0  0  0
   10.2753    3.1231   -0.0000 C   0  0  0  0  0  0  0  0  0  0  0  0
   10.2634    4.6370   -0.0000 C   0  0  0  0  0  0  0  0  0  0  0  0
   11.5747    5.4238   -0.0000 O   0  0  0  0  0  0  0  0  0  0  0  0
  1  2  2  0
  2  3  1  0
  2  4  1  0
  3  5  2  0
  4  6  2  0
  5  7  1  0
  5  8  1  0
  7  9  1  0
  7 10  1  1
  8 11  1  0
  9 12  1  0
  9 13  1  1
 12 14  1  0
 13 15  1  0
 14 16  1  0
 14 17  1  1
 16 18  1  0
 16 19  1  1
 17 20  1  0
 18 21  1  0
 21 22  2  0
  6  7  1  0
 12 11  1  6
 15 16  1  0
 20 21  1  0
M  END
>  <MolRegNo>  (1) 
453121

>  <m>  (1) 
=

>  <Value>  (1) 
35000

>  <Unit>  (1) 
nM

>  <Type>  (1) 
Ki

>  <pValue>  (1) 
4.46

>  <Ligand Efficiency>  (1) 
0.28

>  <Binding Efficiency>  (1) 
14.83

>  <Surface Efficiency>  (1) 
10.27

>  <Assay Index>  (1) 
50931

>  <Assay Category>  (1) 


>  <Assay Organism>  (1) 
Homo sapiens

>  <Target ID>  (1) 
65

>  <Target Name>  (1) 
Cytochrome P450 19A1

>  <Target Organism>  (1) 
Homo sapiens

>  <Target Description>  (1) 
Target is a single protein chain

>  <Sequence Accession>  (1) 
P11511

>  <Reference>  (1) 
J Med Chem 32 (10), 2231-2239 (1989)

>  <Pubmed ID>  (1) 
2677377

>  <DOI>  (1) 
10.1021/jm00130a001

$$$$
