4wnv_ligand_69
     RDKit          2D

 26 30  0  0  1  0  0  0  0  0999 V2000
    0.0000   -0.0000   -0.0000 O   0  0  0  0  0  0  0  0  0  0  0  0
    1.4791    0.1657   -0.0000 C   0  0  0  0  0  0  0  0  0  0  0  0
    2.3192   -1.0413   -0.0000 O   0  0  0  0  0  0  0  0  0  0  0  0
    2.0707    1.5264   -0.0000 C   0  0  0  0  0  0  0  0  0  0  0  0
    1.7039   -2.3784   -0.0000 C   0  0  0  0  0  0  0  0  0  0  0  0
    3.5616    1.6684   -0.0000 C   0  0  0  0  0  0  0  0  0  0  0  0
    1.1833    2.7570   -0.0000 C   0  0  0  0  0  0  0  0  0  0  0  0
    4.1651    3.0528   -0.0000 N   0  0  0  0  0  0  0  0  0  0  0  0
    1.7986    4.1296   -0.0000 C   0  0  0  0  0  0  0  0  0  0  0  0
   -0.2958    2.6150   -0.0000 C   0  0  0  0  0  0  0  0  0  0  0  0
    3.2776    4.2952   -0.0000 C   0  0  0  0  0  0  0  0  0  0  0  0
    0.9111    5.3720   -0.0000 C   0  0  0  0  0  0  0  0  0  0  0  0
   -1.1833    3.8456   -0.0000 C   0  0  0  0  0  0  0  0  0  0  0  0
    3.8693    5.6797   -0.0000 C   0  0  0  0  0  0  0  0  0  0  0  0
   -0.5916    5.2064   -0.0000 N   0  0  0  0  0  0  0  0  0  0  0  0
   -2.6623    3.7036   -0.0000 C   0  0  0  0  0  0  0  0  0  0  0  0
   -1.4909    6.4251   -0.0000 C   0  0  0  0  0  0  0  0  0  0  0  0
   -3.5498    2.4967   -0.0000 N   0  0  0  0  0  0  0  0  0  0  0  0
   -3.5735    4.9105   -0.0000 C   0  0  0  0  0  0  0  0  0  0  0  0
   -2.9937    6.2831   -0.0000 C   0  0  0  0  0  0  0  0  0  0  0  0
   -4.9815    2.9582   -0.0000 C   0  0  0  0  0  0  0  0  0  0  0  0
   -4.9934    4.4491   -0.0000 C   0  0  0  0  0  0  0  0  0  0  0  0
   -6.2950    2.2245   -0.0000 C   0  0  0  0  0  0  0  0  0  0  0  0
   -6.3068    5.2064   -0.0000 C   0  0  0  0  0  0  0  0  0  0  0  0
   -7.5965    2.9818   -0.0000 C   0  0  0  0  0  0  0  0  0  0  0  0
   -7.6084    4.4727   -0.0000 C   0  0  0  0  0  0  0  0  0  0  0  0
  1  2  2  0
  2  3  1  0
  2  4  1  0
  3  5  1  0
  4  6  2  0
  4  7  1  0
  6  8  1  0
  7  9  1  0
  7 10  1  1
  8 11  1  0
  9 12  1  0
 13 10  1  1
 11 14  1  0
 12 15  1  0
 13 16  1  0
 15 17  1  0
 16 18  1  0
 16 19  2  0
 17 20  1  0
 18 21  1  0
 19 22  1  0
 21 23  2  0
 22 24  2  0
 23 25  1  0
 24 26  1  0
  9 11  1  0
 13 15  1  0
 19 20  1  0
 21 22  1  0
 25 26  2  0
M  END
>  <MolRegNo>  (1) 
14932

>  <m>  (1) 
=

>  <Value>  (1) 
2900

>  <Unit>  (1) 
nM

>  <Type>  (1) 
Ki

>  <pValue>  (1) 
5.54

>  <Ligand Efficiency>  (1) 
0

>  <Binding Efficiency>  (1) 
0

>  <Surface Efficiency>  (1) 
0

>  <Assay Index>  (1) 
122804

>  <Assay Category>  (1) 


>  <Assay Organism>  (1) 
Homo sapiens

>  <Target ID>  (1) 
11365

>  <Target Name>  (1) 
Cytochrome P450 2D6

>  <Target Organism>  (1) 
Homo sapiens

>  <Target Description>  (1) 
Target is a single protein chain

>  <Sequence Accession>  (1) 
P10635

>  <Reference>  (1) 
J Med Chem 36 (9), 1136-1145 (1993)

>  <Pubmed ID>  (1) 
8487254

>  <DOI>  (1) 
10.1021/jm00061a004

$$$$
