4wnv_ligand_171
     RDKit          2D

 24 26  0  0  0  0  0  0  0  0999 V2000
    0.0000   -0.0000   -0.0000 O   0  0  0  0  0  0  0  0  0  0  0  0
   -1.3129   -0.7400   -0.0000 C   0  0  0  0  0  0  0  0  0  0  0  0
   -1.3248   -2.2319   -0.0000 O   0  0  0  0  0  0  0  0  0  0  0  0
   -2.6257    0.0239   -0.0000 C   0  0  0  0  0  0  0  0  0  0  0  0
   -0.0358   -2.9718   -0.0000 C   0  0  0  0  0  0  0  0  0  0  0  0
    1.2532   -2.2080   -0.0000 C   0  0  0  0  0  0  0  0  0  0  0  0
   -0.0477   -4.4637   -0.0000 C   0  0  0  0  0  0  0  0  0  0  0  0
    2.5422   -2.9599   -0.0000 C   0  0  0  0  0  0  0  0  0  0  0  0
    1.2413   -0.7042   -0.0000 C   0  0  0  0  0  0  0  0  0  0  0  0
   -1.3606   -5.2037   -0.0000 C   0  0  0  0  0  0  0  0  0  0  0  0
    1.2413   -5.2037   -0.0000 C   0  0  0  0  0  0  0  0  0  0  0  0
    3.8312   -2.1961   -0.0000 C   0  0  0  0  0  0  0  0  0  0  0  0
    2.5302    0.0597   -0.0000 C   0  0  0  0  0  0  0  0  0  0  0  0
   -2.6735   -4.4518   -0.0000 C   0  0  0  0  0  0  0  0  0  0  0  0
   -1.3606   -6.7075   -0.0000 C   0  0  0  0  0  0  0  0  0  0  0  0
    1.2293   -6.6956   -0.0000 N   0  0  0  0  0  0  0  0  0  0  0  0
    3.8192   -0.6803   -0.0000 C   0  0  0  0  0  0  0  0  0  0  0  0
   -3.9863   -5.1918   -0.0000 C   0  0  0  0  0  0  0  0  0  0  0  0
   -2.6735   -7.4475   -0.0000 C   0  0  0  0  0  0  0  0  0  0  0  0
    2.4348   -7.5549   -0.0000 N   0  0  0  0  0  0  0  0  0  0  0  0
    0.0000   -7.5549   -0.0000 C   0  0  0  0  0  0  0  0  0  0  0  0
   -3.9983   -6.6837   -0.0000 C   0  0  0  0  0  0  0  0  0  0  0  0
    1.9574   -8.9752   -0.0000 N   0  0  0  0  0  0  0  0  0  0  0  0
    0.4535   -8.9752   -0.0000 C   0  0  0  0  0  0  0  0  0  0  0  0
  1  2  2  0
  2  3  1  0
  2  4  1  0
  5  3  1  6
  5  6  1  0
  5  7  1  0
  6  8  2  0
  6  9  1  0
  7 10  1  0
  7 11  1  1
  8 12  1  0
  9 13  2  0
 10 14  2  0
 10 15  1  0
 11 16  1  0
 12 17  2  0
 14 18  1  0
 15 19  2  0
 16 20  1  0
 16 21  1  0
 18 22  2  0
 20 23  2  0
 21 24  2  0
 13 17  1  0
 19 22  1  0
 23 24  1  0
M  END
>  <MolRegNo>  (1) 
1271162

>  <m>  (1) 
=

>  <Value>  (1) 
250

>  <Unit>  (1) 
nM

>  <Type>  (1) 
Ki

>  <pValue>  (1) 
6.6

>  <Ligand Efficiency>  (1) 
0.38

>  <Binding Efficiency>  (1) 
20.54

>  <Surface Efficiency>  (1) 
11.58

>  <Assay Index>  (1) 
630342

>  <Assay Category>  (1) 


>  <Assay Organism>  (1) 
Homo sapiens

>  <Target ID>  (1) 
65

>  <Target Name>  (1) 
Cytochrome P450 19A1

>  <Target Organism>  (1) 
Homo sapiens

>  <Target Description>  (1) 
Target is a single protein chain

>  <Sequence Accession>  (1) 
P11511

>  <Reference>  (1) 
Bioorg Med Chem Lett 22 (1), 718-722 (2012)

>  <Pubmed ID>  (1) 
22079757

>  <DOI>  (1) 
10.1016/j.bmcl.2011.10.039

$$$$
