4wnv_ligand_192
     RDKit          2D

 26 29  0  0  0  0  0  0  0  0999 V2000
    0.0000   -0.0000   -0.0000 O   0  0  0  0  0  0  0  0  0  0  0  0
    1.1544    0.9542   -0.0000 C   0  0  0  0  0  0  0  0  0  0  0  0
    2.5445    0.4241   -0.0000 O   0  0  0  0  0  0  0  0  0  0  0  0
    0.8364    2.4267   -0.0000 C   0  0  0  0  0  0  0  0  0  0  0  0
    2.7683   -1.0366   -0.0000 C   0  0  0  0  0  0  0  0  0  0  0  0
    1.8259    3.5458   -0.0000 N   0  0  0  0  0  0  0  0  0  0  0  0
   -0.5419    3.0510   -0.0000 C   0  0  0  0  0  0  0  0  0  0  0  0
    4.1584   -1.5668   -0.0000 C   0  0  0  0  0  0  0  0  0  0  0  0
    1.0720    4.8534   -0.0000 N   0  0  0  0  0  0  0  0  0  0  0  0
   -0.4005    4.5471   -0.0000 N   0  0  0  0  0  0  0  0  0  0  0  0
   -1.8495    2.3089   -0.0000 C   0  0  0  0  0  0  0  0  0  0  0  0
   -1.5196    5.5602   -0.0000 C   0  0  0  0  0  0  0  0  0  0  0  0
   -3.1571    3.0746   -0.0000 C   0  0  0  0  0  0  0  0  0  0  0  0
   -1.8613    0.8246   -0.0000 C   0  0  0  0  0  0  0  0  0  0  0  0
   -1.2251    7.0327   -0.0000 C   0  0  0  0  0  0  0  0  0  0  0  0
   -4.4647    2.3325   -0.0000 C   0  0  0  0  0  0  0  0  0  0  0  0
   -3.1688    0.0942   -0.0000 C   0  0  0  0  0  0  0  0  0  0  0  0
   -2.3442    8.0458   -0.0000 C   0  0  0  0  0  0  0  0  0  0  0  0
    0.1885    7.5039   -0.0000 C   0  0  0  0  0  0  0  0  0  0  0  0
   -5.9018    2.8037   -0.0000 O   0  0  0  0  0  0  0  0  0  0  0  0
   -4.4764    0.8482   -0.0000 C   0  0  0  0  0  0  0  0  0  0  0  0
   -2.0497    9.5183   -0.0000 C   0  0  0  0  0  0  0  0  0  0  0  0
    0.4830    8.9764   -0.0000 C   0  0  0  0  0  0  0  0  0  0  0  0
   -6.7971    1.6021   -0.0000 C   0  0  0  0  0  0  0  0  0  0  0  0
   -5.9136    0.4005   -0.0000 O   0  0  0  0  0  0  0  0  0  0  0  0
   -0.6361    9.9895   -0.0000 C   0  0  0  0  0  0  0  0  0  0  0  0
  1  2  2  0
  2  3  1  0
  2  4  1  0
  3  5  1  0
  4  6  1  0
  4  7  2  0
  5  8  1  0
  6  9  2  0
  7 10  1  0
  7 11  1  0
 10 12  1  0
 11 13  2  0
 11 14  1  0
 12 15  1  0
 13 16  1  0
 14 17  2  0
 15 18  2  0
 15 19  1  0
 16 20  1  0
 16 21  2  0
 18 22  1  0
 19 23  2  0
 20 24  1  0
 21 25  1  0
 22 26  2  0
  9 10  1  0
 17 21  1  0
 23 26  1  0
 24 25  1  0
M  END
>  <MolRegNo>  (1) 
1787337

>  <m>  (1) 
=

>  <Value>  (1) 
707.95

>  <Unit>  (1) 
nM

>  <Type>  (1) 
Ki

>  <pValue>  (1) 
6.15

>  <Ligand Efficiency>  (1) 
0.32

>  <Binding Efficiency>  (1) 
17.5

>  <Surface Efficiency>  (1) 
8.15

>  <Assay Index>  (1) 
897972

>  <Assay Category>  (1) 


>  <Assay Organism>  (1) 
Homo sapiens

>  <Target ID>  (1) 
65

>  <Target Name>  (1) 
Cytochrome P450 19A1

>  <Target Organism>  (1) 
Homo sapiens

>  <Target Description>  (1) 
Target is a single protein chain

>  <Sequence Accession>  (1) 
P11511

>  <Reference>  (1) 
Bioorg Med Chem Lett 24 (18), 4586-4589 (2014)

>  <Pubmed ID>  (1) 
25155384

>  <DOI>  (1) 
10.1016/j.bmcl.2014.07.083

$$$$
