4wnv_ligand_113
     RDKit          2D

 29 33  0  0  0  0  0  0  0  0999 V2000
    0.0000   -0.0000   -0.0000 O   0  0  0  0  0  0  0  0  0  0  0  0
    1.2581    0.7788   -0.0000 C   0  0  0  0  0  0  0  0  0  0  0  0
    2.4963    0.0599   -0.0000 C   0  0  0  0  0  0  0  0  0  0  0  0
    1.2382    2.2567   -0.0000 C   0  0  0  0  0  0  0  0  0  0  0  0
    3.7545    0.8188   -0.0000 C   0  0  0  0  0  0  0  0  0  0  0  0
    2.4763    3.0355   -0.0000 C   0  0  0  0  0  0  0  0  0  0  0  0
    5.0126    0.0799   -0.0000 C   0  0  0  0  0  0  0  0  0  0  0  0
    3.7345    2.2966   -0.0000 C   0  0  0  0  0  0  0  0  0  0  0  0
    6.2707    0.8188   -0.0000 C   0  0  0  0  0  0  0  0  0  0  0  0
    4.9926    3.0555   -0.0000 C   0  0  0  0  0  0  0  0  0  0  0  0
    3.7145    3.7944   -0.0000 C   0  0  0  0  0  0  0  0  0  0  0  0
    6.2508    2.3166   -0.0000 C   0  0  0  0  0  0  0  0  0  0  0  0
    7.5289    0.0999   -0.0000 C   0  0  0  0  0  0  0  0  0  0  0  0
    4.9926    4.5533   -0.0000 C   0  0  0  0  0  0  0  0  0  0  0  0
    7.5089    3.0555   -0.0000 C   0  0  0  0  0  0  0  0  0  0  0  0
    7.5089   -1.3580   -0.0000 C   0  0  0  0  0  0  0  0  0  0  0  0
    6.2707    5.2922   -0.0000 C   0  0  0  0  0  0  0  0  0  0  0  0
    7.5089    4.5333   -0.0000 C   0  0  0  0  0  0  0  0  0  0  0  0
   10.0252    3.0355   -0.0000 C   0  0  0  0  0  0  0  0  0  0  0  0
    8.7471   -2.0769   -0.0000 C   0  0  0  0  0  0  0  0  0  0  0  0
    6.1909   -2.0570   -0.0000 C   0  0  0  0  0  0  0  0  0  0  0  0
    8.7670    5.2722   -0.0000 C   0  0  0  0  0  0  0  0  0  0  0  0
    7.4889    6.0311   -0.0000 C   0  0  0  0  0  0  0  0  0  0  0  0
   10.0252    4.5133   -0.0000 C   0  0  0  0  0  0  0  0  0  0  0  0
    8.7271   -3.5148   -0.0000 C   0  0  0  0  0  0  0  0  0  0  0  0
    6.1709   -3.5148   -0.0000 C   0  0  0  0  0  0  0  0  0  0  0  0
    8.7670    6.7700   -0.0000 O   0  0  0  0  0  0  0  0  0  0  0  0
    7.4290   -4.2337   -0.0000 C   0  0  0  0  0  0  0  0  0  0  0  0
    7.4091   -5.6916   -0.0000 N   0  0  0  0  0  0  0  0  0  0  0  0
  1  2  2  0
  2  3  1  0
  2  4  1  0
  3  5  2  0
  4  6  1  0
  5  7  1  0
  5  8  1  0
  7  9  2  0
  8 10  1  0
  8 11  1  0
  9 12  1  0
  9 13  1  0
 10 14  1  0
 12 15  1  0
 13 16  1  0
 14 17  1  0
 15 18  1  0
 15 19  1  0
 16 20  2  0
 16 21  1  0
 18 22  1  0
 18 23  1  0
 19 24  1  0
 20 25  1  0
 21 26  2  0
 22 27  2  0
 25 28  2  0
 28 29  1  0
  6  8  1  0
 10 12  1  0
 17 18  1  0
 22 24  1  0
 26 28  1  0
M  END
>  <MolRegNo>  (1) 
5448

>  <m>  (1) 
=

>  <Value>  (1) 
88

>  <Unit>  (1) 
nM

>  <Type>  (1) 
Ki

>  <pValue>  (1) 
7.06

>  <Ligand Efficiency>  (1) 
0.33

>  <Binding Efficiency>  (1) 
18.11

>  <Surface Efficiency>  (1) 
11.73

>  <Assay Index>  (1) 
50932

>  <Assay Category>  (1) 


>  <Assay Organism>  (1) 
Homo sapiens

>  <Target ID>  (1) 
65

>  <Target Name>  (1) 
Cytochrome P450 19A1

>  <Target Organism>  (1) 
Homo sapiens

>  <Target Description>  (1) 
Target is a single protein chain

>  <Sequence Accession>  (1) 
P11511

>  <Reference>  (1) 
J Med Chem 33 (1), 101-105 (1990)

>  <Pubmed ID>  (1) 
2296006

>  <DOI>  (1) 
10.1021/jm00163a017

$$$$
