4wnv_ligand_96
     RDKit          2D

 29 33  0  0  1  0  0  0  0  0999 V2000
    0.0000   -0.0000   -0.0000 I   0  0  0  0  0  0  0  0  0  0  0  0
   -0.0177    1.5072   -0.0000 C   0  0  0  0  0  0  0  0  0  0  0  0
    1.2590    2.2697   -0.0000 C   0  0  0  0  0  0  0  0  0  0  0  0
   -1.3299    2.2697   -0.0000 C   0  0  0  0  0  0  0  0  0  0  0  0
    1.2413    3.7769   -0.0000 C   0  0  0  0  0  0  0  0  0  0  0  0
   -1.3476    3.7769   -0.0000 C   0  0  0  0  0  0  0  0  0  0  0  0
   -0.0532    4.5217   -0.0000 C   0  0  0  0  0  0  0  0  0  0  0  0
   -0.0709    6.0289   -0.0000 S   0  0  0  0  0  0  0  0  0  0  0  0
   -1.3831    6.8091   -0.0000 C   0  0  0  0  0  0  0  0  0  0  0  0
   -1.4008    8.2986   -0.0000 C   0  0  0  0  0  0  0  0  0  0  0  0
   -2.6953    6.0821   -0.0000 C   0  0  0  0  0  0  0  0  0  0  0  0
   -2.6953    9.0789   -0.0000 C   0  0  0  0  0  0  0  0  0  0  0  0
   -0.1064    9.2207   -0.0000 C   0  0  0  0  0  0  0  0  0  0  0  0
   -4.0075    6.8446   -0.0000 C   0  0  0  0  0  0  0  0  0  0  0  0
   -4.0075    8.3518   -0.0000 C   0  0  0  0  0  0  0  0  0  0  0  0
   -2.6953   10.5861   -0.0000 C   0  0  0  0  0  0  0  0  0  0  0  0
   -0.1241   10.5329   -0.0000 C   0  0  0  0  0  0  0  0  0  0  0  0
    2.1279    9.2384   -0.0000 C   0  0  0  0  0  0  0  0  0  0  0  0
   -5.3019    6.1176   -0.0000 C   0  0  0  0  0  0  0  0  0  0  0  0
   -5.3196    9.1143   -0.0000 C   0  0  0  0  0  0  0  0  0  0  0  0
   -4.0252    9.8591   -0.0000 C   0  0  0  0  0  0  0  0  0  0  0  0
   -1.4186   11.3308   -0.0000 C   0  0  0  0  0  0  0  0  0  0  0  0
    0.9930   11.2067   -0.0000 C   0  0  0  0  0  0  0  0  0  0  0  0
   -0.1419   12.0401   -0.0000 C   0  0  0  0  0  0  0  0  0  0  0  0
    2.1101   10.5506   -0.0000 C   0  0  0  0  0  0  0  0  0  0  0  0
   -6.6141    6.8801   -0.0000 C   0  0  0  0  0  0  0  0  0  0  0  0
   -6.6318    8.3873   -0.0000 C   0  0  0  0  0  0  0  0  0  0  0  0
    0.9753   12.5366   -0.0000 O   0  0  0  0  0  0  0  0  0  0  0  0
   -7.9263    6.1531   -0.0000 O   0  0  0  0  0  0  0  0  0  0  0  0
  1  2  1  0
  2  3  2  0
  2  4  1  0
  3  5  1  0
  4  6  2  0
  5  7  2  0
  7  8  1  0
  9  8  1  6
  9 10  1  0
  9 11  1  0
 10 12  1  0
 10 13  1  0
 11 14  1  0
 12 15  1  0
 12 16  1  0
 13 17  1  0
 13 18  1  0
 14 19  2  0
 15 20  1  0
 15 21  1  1
 16 22  1  0
 17 23  1  0
 17 24  1  1
 18 25  1  0
 19 26  1  0
 20 27  1  0
 23 28  2  0
 26 29  2  0
  6  7  1  0
 14 15  1  0
 17 22  1  0
 23 25  1  0
 26 27  1  0
M  END
>  <MolRegNo>  (1) 
163057

>  <m>  (1) 
=

>  <Value>  (1) 
12

>  <Unit>  (1) 
nM

>  <Type>  (1) 
Ki

>  <pValue>  (1) 
7.92

>  <Ligand Efficiency>  (1) 
0.37

>  <Binding Efficiency>  (1) 
15.22

>  <Surface Efficiency>  (1) 
23.2

>  <Assay Index>  (1) 
50795

>  <Assay Category>  (1) 


>  <Assay Organism>  (1) 


>  <Target ID>  (1) 
65

>  <Target Name>  (1) 
Cytochrome P450 19A1

>  <Target Organism>  (1) 
Homo sapiens

>  <Target Description>  (1) 
Target is a single protein chain

>  <Sequence Accession>  (1) 
P11511

>  <Reference>  (1) 
J Med Chem 33 (11), 2933-2942 (1990)

>  <Pubmed ID>  (1) 
2231592

>  <DOI>  (1) 
10.1021/jm00173a001

$$$$
