4wnv_ligand_163
     RDKit          2D

 24 27  0  0  1  0  0  0  0  0999 V2000
    0.0000   -0.0000   -0.0000 F   0  0  0  0  0  0  0  0  0  0  0  0
   -0.0123   -1.4865   -0.0000 C   0  0  0  0  0  0  0  0  0  0  0  0
    1.2654   -2.2236   -0.0000 C   0  0  0  0  0  0  0  0  0  0  0  0
   -1.3145   -2.2236   -0.0000 C   0  0  0  0  0  0  0  0  0  0  0  0
    1.2531   -3.7101   -0.0000 C   0  0  0  0  0  0  0  0  0  0  0  0
   -1.3268   -3.7101   -0.0000 C   0  0  0  0  0  0  0  0  0  0  0  0
   -0.0491   -4.4472   -0.0000 C   0  0  0  0  0  0  0  0  0  0  0  0
   -0.0614   -5.9337   -0.0000 C   0  0  0  0  0  0  0  0  0  0  0  0
    1.2162   -6.6708   -0.0000 C   0  0  0  0  0  0  0  0  0  0  0  0
   -1.3636   -6.6708   -0.0000 C   0  0  0  0  0  0  0  0  0  0  0  0
    1.2039   -8.1573   -0.0000 C   0  0  0  0  0  0  0  0  0  0  0  0
    2.5184   -5.9091   -0.0000 C   0  0  0  0  0  0  0  0  0  0  0  0
   -1.3759   -8.1573   -0.0000 C   0  0  0  0  0  0  0  0  0  0  0  0
   -0.0983   -8.8944   -0.0000 N   0  0  0  0  0  0  0  0  0  0  0  0
    4.0664   -6.7322   -0.0000 O   0  0  0  0  0  0  0  0  0  0  0  0
    5.3440   -5.9706   -0.0000 C   0  0  0  0  0  0  0  0  0  0  0  0
    6.6462   -6.6954   -0.0000 C   0  0  0  0  0  0  0  0  0  0  0  0
    5.3317   -4.4595   -0.0000 C   0  0  0  0  0  0  0  0  0  0  0  0
    7.9239   -5.9337   -0.0000 C   0  0  0  0  0  0  0  0  0  0  0  0
    6.6094   -3.6978   -0.0000 C   0  0  0  0  0  0  0  0  0  0  0  0
    9.3367   -6.3637   -0.0000 O   0  0  0  0  0  0  0  0  0  0  0  0
    7.9116   -4.4226   -0.0000 C   0  0  0  0  0  0  0  0  0  0  0  0
   10.2089   -5.1352   -0.0000 C   0  0  0  0  0  0  0  0  0  0  0  0
    9.3490   -3.9435   -0.0000 O   0  0  0  0  0  0  0  0  0  0  0  0
  1  2  1  0
  2  3  2  0
  2  4  1  0
  3  5  1  0
  4  6  2  0
  5  7  2  0
  8  7  1  1
  8  9  1  0
  8 10  1  0
  9 11  1  0
  9 12  1  6
 10 13  1  0
 11 14  1  0
 12 15  1  0
 15 16  1  0
 16 17  2  0
 16 18  1  0
 17 19  1  0
 18 20  2  0
 19 21  1  0
 19 22  2  0
 21 23  1  0
 22 24  1  0
  6  7  1  0
 13 14  1  0
 20 22  1  0
 23 24  1  0
M  END
>  <MolRegNo>  (1) 
6643

>  <m>  (1) 
=

>  <Value>  (1) 
4850

>  <Unit>  (1) 
nM

>  <Type>  (1) 
Ki

>  <pValue>  (1) 
5.31

>  <Ligand Efficiency>  (1) 
0

>  <Binding Efficiency>  (1) 
0

>  <Surface Efficiency>  (1) 
0

>  <Assay Index>  (1) 
581915

>  <Assay Category>  (1) 


>  <Assay Organism>  (1) 
Homo sapiens

>  <Target ID>  (1) 
11365

>  <Target Name>  (1) 
Cytochrome P450 2D6

>  <Target Organism>  (1) 
Homo sapiens

>  <Target Description>  (1) 
Target is a single protein chain

>  <Sequence Accession>  (1) 
P10635

>  <Reference>  (1) 
Curr Drug Metab 6 (1), 413-454 (2005)

>  <Pubmed ID>  (1) 
16248836

>  <DOI>  (1) 
10.2174/138920005774330639

$$$$
