4wnv_ligand_288
     RDKit          2D

 29 33  0  0  0  0  0  0  0  0999 V2000
    0.0000   -0.0000   -0.0000 O   0  0  0  0  0  0  0  0  0  0  0  0
    1.0575    0.6304   -0.0000 C   0  0  0  0  0  0  0  0  0  0  0  0
    2.3183   -0.1017   -0.0000 C   0  0  0  0  0  0  0  0  0  0  0  0
    1.0372    2.1353   -0.0000 C   0  0  0  0  0  0  0  0  0  0  0  0
    3.5792    0.6914   -0.0000 C   0  0  0  0  0  0  0  0  0  0  0  0
    2.2777    2.8878   -0.0000 C   0  0  0  0  0  0  0  0  0  0  0  0
    4.8604   -0.0407   -0.0000 C   0  0  0  0  0  0  0  0  0  0  0  0
    3.5589    2.1963   -0.0000 C   0  0  0  0  0  0  0  0  0  0  0  0
    6.1212    0.7524   -0.0000 C   0  0  0  0  0  0  0  0  0  0  0  0
    4.8197    2.9488   -0.0000 C   0  0  0  0  0  0  0  0  0  0  0  0
    3.5182    3.4572   -0.0000 C   0  0  0  0  0  0  0  0  0  0  0  0
    6.0806    2.2573   -0.0000 C   0  0  0  0  0  0  0  0  0  0  0  0
    7.4431    0.0203   -0.0000 C   0  0  0  0  0  0  0  0  0  0  0  0
    4.7790    4.4740   -0.0000 C   0  0  0  0  0  0  0  0  0  0  0  0
    7.3414    3.0098   -0.0000 C   0  0  0  0  0  0  0  0  0  0  0  0
    7.4431   -1.5049   -0.0000 C   0  0  0  0  0  0  0  0  0  0  0  0
    6.0399    5.2468   -0.0000 C   0  0  0  0  0  0  0  0  0  0  0  0
    7.3211    4.5147   -0.0000 C   0  0  0  0  0  0  0  0  0  0  0  0
    9.9038    3.0098   -0.0000 C   0  0  0  0  0  0  0  0  0  0  0  0
    8.7650   -2.2370   -0.0000 C   0  0  0  0  0  0  0  0  0  0  0  0
    8.5819    5.3078   -0.0000 C   0  0  0  0  0  0  0  0  0  0  0  0
    7.3007    5.7755   -0.0000 C   0  0  0  0  0  0  0  0  0  0  0  0
    9.8835    4.5553   -0.0000 C   0  0  0  0  0  0  0  0  0  0  0  0
   10.0665   -1.4235   -0.0000 C   0  0  0  0  0  0  0  0  0  0  0  0
    8.7650   -3.7622   -0.0000 C   0  0  0  0  0  0  0  0  0  0  0  0
    8.5616    6.5686   -0.0000 O   0  0  0  0  0  0  0  0  0  0  0  0
   11.3883   -2.1556   -0.0000 C   0  0  0  0  0  0  0  0  0  0  0  0
   10.0868   -4.4943   -0.0000 C   0  0  0  0  0  0  0  0  0  0  0  0
   11.3883   -3.6809   -0.0000 C   0  0  0  0  0  0  0  0  0  0  0  0
  1  2  2  0
  2  3  1  0
  2  4  1  0
  3  5  2  0
  4  6  1  0
  5  7  1  0
  5  8  1  0
  7  9  2  0
  8 10  1  0
  8 11  1  6
 12  9  1  1
  9 13  1  0
 10 14  1  6
 12 15  1  0
 13 16  1  0
 14 17  1  0
 15 18  1  0
 15 19  1  6
 16 20  1  0
 18 21  1  0
 18 22  1  6
 19 23  1  0
 20 24  2  0
 20 25  1  0
 21 26  2  0
 24 27  1  0
 25 28  2  0
 27 29  2  0
  6  8  1  0
 10 12  1  0
 17 18  1  0
 21 23  1  0
 28 29  1  0
M  END
>  <MolRegNo>  (1) 
2057976

>  <m>  (1) 
=

>  <Value>  (1) 
60.9

>  <Unit>  (1) 
nM

>  <Type>  (1) 
Ki

>  <pValue>  (1) 
7.21

>  <Ligand Efficiency>  (1) 
0.34

>  <Binding Efficiency>  (1) 
18.57

>  <Surface Efficiency>  (1) 
21.13

>  <Assay Index>  (1) 
985527

>  <Assay Category>  (1) 


>  <Assay Organism>  (1) 
Homo sapiens

>  <Target ID>  (1) 
65

>  <Target Name>  (1) 
Cytochrome P450 19A1

>  <Target Organism>  (1) 
Homo sapiens

>  <Target Description>  (1) 
Target is a single protein chain

>  <Sequence Accession>  (1) 
P11511

>  <Reference>  (1) 


>  <Pubmed ID>  (1) 
26469743

>  <DOI>  (1) 
10.1016/j.ejmech.2015.09.038

$$$$
