4wnv_ligand_366
     RDKit          2D

 21 24  0  0  0  0  0  0  0  0999 V2000
    0.0000   -0.0000   -0.0000 O   0  0  0  0  0  0  0  0  0  0  0  0
    0.0000   -1.2269   -0.0000 C   0  0  0  0  0  0  0  0  0  0  0  0
   -1.3111   -1.9848   -0.0000 C   0  0  0  0  0  0  0  0  0  0  0  0
    1.2871   -1.9727   -0.0000 C   0  0  0  0  0  0  0  0  0  0  0  0
   -1.3232   -3.4643   -0.0000 C   0  0  0  0  0  0  0  0  0  0  0  0
   -2.6103   -1.2149   -0.0000 C   0  0  0  0  0  0  0  0  0  0  0  0
   -1.3232   -0.7338   -0.0000 C   0  0  0  0  0  0  0  0  0  0  0  0
    1.2751   -3.4884   -0.0000 C   0  0  0  0  0  0  0  0  0  0  0  0
   -2.6223   -4.1860   -0.0000 C   0  0  0  0  0  0  0  0  0  0  0  0
   -3.9214   -1.9607   -0.0000 C   0  0  0  0  0  0  0  0  0  0  0  0
   -3.9214   -3.4523   -0.0000 C   0  0  0  0  0  0  0  0  0  0  0  0
   -2.6103   -5.6656   -0.0000 C   0  0  0  0  0  0  0  0  0  0  0  0
   -5.2205   -4.1740   -0.0000 C   0  0  0  0  0  0  0  0  0  0  0  0
   -3.9094   -6.4234   -0.0000 C   0  0  0  0  0  0  0  0  0  0  0  0
   -5.2325   -5.6535   -0.0000 C   0  0  0  0  0  0  0  0  0  0  0  0
   -6.5557   -3.4402   -0.0000 C   0  0  0  0  0  0  0  0  0  0  0  0
   -3.9094   -7.6503   -0.0000 C   0  0  0  0  0  0  0  0  0  0  0  0
   -6.5437   -6.4114   -0.0000 C   0  0  0  0  0  0  0  0  0  0  0  0
   -7.8308   -4.1620   -0.0000 C   0  0  0  0  0  0  0  0  0  0  0  0
   -7.8428   -5.6415   -0.0000 C   0  0  0  0  0  0  0  0  0  0  0  0
   -8.9254   -6.2430   -0.0000 O   0  0  0  0  0  0  0  0  0  0  0  0
  1  2  2  0
  2  3  1  0
  2  4  1  0
  3  5  1  0
  3  6  1  0
  3  7  1  1
  4  8  1  0
  5  9  1  0
  6 10  1  0
  9 11  1  0
  9 12  1  6
 11 13  1  0
 12 14  1  0
 13 15  2  0
 13 16  1  0
 14 17  1  1
 15 18  1  0
 16 19  2  0
 18 20  2  0
 20 21  1  0
  5  8  1  1
 11 10  1  1
 14 15  1  0
 19 20  1  0
M  END
>  <MolRegNo>  (1) 
2058265

>  <m>  (1) 
=

>  <Value>  (1) 
100

>  <Unit>  (1) 
nM

>  <Type>  (1) 
Ki

>  <pValue>  (1) 
7

>  <Ligand Efficiency>  (1) 
0.46

>  <Binding Efficiency>  (1) 
24.61

>  <Surface Efficiency>  (1) 
18.77

>  <Assay Index>  (1) 
985353

>  <Assay Category>  (1) 


>  <Assay Organism>  (1) 
Homo sapiens

>  <Target ID>  (1) 
65

>  <Target Name>  (1) 
Cytochrome P450 19A1

>  <Target Organism>  (1) 
Homo sapiens

>  <Target Description>  (1) 
Target is a single protein chain

>  <Sequence Accession>  (1) 
P11511

>  <Reference>  (1) 


>  <Pubmed ID>  (1) 
26469743

>  <DOI>  (1) 
10.1016/j.ejmech.2015.09.038

$$$$
