4wnv_ligand_174
     RDKit          2D

 27 29  0  0  0  0  0  0  0  0999 V2000
    0.0000   -0.0000   -0.0000 O   0  0  0  0  0  0  0  0  0  0  0  0
    1.2955    0.7607   -0.0000 C   0  0  0  0  0  0  0  0  0  0  0  0
   -1.3074    0.7607   -0.0000 C   0  0  0  0  0  0  0  0  0  0  0  0
    2.5792    0.0238   -0.0000 C   0  0  0  0  0  0  0  0  0  0  0  0
    1.2837    2.2820   -0.0000 C   0  0  0  0  0  0  0  0  0  0  0  0
   -2.6267    0.0238   -0.0000 C   0  0  0  0  0  0  0  0  0  0  0  0
    3.8747    0.7845   -0.0000 C   0  0  0  0  0  0  0  0  0  0  0  0
    2.5673    3.0427   -0.0000 C   0  0  0  0  0  0  0  0  0  0  0  0
   -3.9342    0.7845   -0.0000 N   0  0  0  0  0  0  0  0  0  0  0  0
    3.8628    2.3058   -0.0000 C   0  0  0  0  0  0  0  0  0  0  0  0
    5.1465    3.0665   -0.0000 C   0  0  0  0  0  0  0  0  0  0  0  0
    6.4301    2.3296   -0.0000 C   0  0  0  0  0  0  0  0  0  0  0  0
    5.1346    4.5760   -0.0000 C   0  0  0  0  0  0  0  0  0  0  0  0
    6.4183    0.8439   -0.0000 C   0  0  0  0  0  0  0  0  0  0  0  0
    7.7019    3.1022   -0.0000 C   0  0  0  0  0  0  0  0  0  0  0  0
    3.8153    5.3367   -0.0000 C   0  0  0  0  0  0  0  0  0  0  0  0
    6.4183    5.3367   -0.0000 C   0  0  0  0  0  0  0  0  0  0  0  0
    7.7019    0.1070   -0.0000 C   0  0  0  0  0  0  0  0  0  0  0  0
    8.9856    2.3771   -0.0000 C   0  0  0  0  0  0  0  0  0  0  0  0
    3.8034    6.8461   -0.0000 C   0  0  0  0  0  0  0  0  0  0  0  0
    2.5198    4.5998   -0.0000 C   0  0  0  0  0  0  0  0  0  0  0  0
    7.7019    4.5998   -0.0000 C   0  0  0  0  0  0  0  0  0  0  0  0
    8.9856    0.8677   -0.0000 C   0  0  0  0  0  0  0  0  0  0  0  0
    2.4841    7.6068   -0.0000 C   0  0  0  0  0  0  0  0  0  0  0  0
    1.2005    5.3486   -0.0000 C   0  0  0  0  0  0  0  0  0  0  0  0
   10.2811    0.1307   -0.0000 O   0  0  0  0  0  0  0  0  0  0  0  0
    1.1767    6.8580   -0.0000 C   0  0  0  0  0  0  0  0  0  0  0  0
  1  2  1  0
  1  3  1  0
  2  4  2  0
  2  5  1  0
  3  6  1  0
  4  7  1  0
  5  8  2  0
  6  9  1  0
  7 10  2  0
 10 11  1  0
 11 12  1  0
 11 13  2  3
 12 14  2  0
 12 15  1  0
 13 16  1  0
 13 17  1  0
 14 18  1  0
 15 19  2  0
 16 20  2  0
 16 21  1  0
 17 22  1  0
 18 23  2  0
 20 24  1  0
 21 25  2  0
 23 26  1  0
 24 27  2  0
  8 10  1  0
 19 23  1  0
 25 27  1  0
M  END
>  <MolRegNo>  (1) 
1798991

>  <m>  (1) 
=

>  <Value>  (1) 
77

>  <Unit>  (1) 
nM

>  <Type>  (1) 
Ki

>  <pValue>  (1) 
7.11

>  <Ligand Efficiency>  (1) 
0.36

>  <Binding Efficiency>  (1) 
19.79

>  <Surface Efficiency>  (1) 
12.82

>  <Assay Index>  (1) 
776520

>  <Assay Category>  (1) 


>  <Assay Organism>  (1) 
Homo sapiens

>  <Target ID>  (1) 
65

>  <Target Name>  (1) 
Cytochrome P450 19A1

>  <Target Organism>  (1) 
Homo sapiens

>  <Target Description>  (1) 
Target is a single protein chain

>  <Sequence Accession>  (1) 
P11511

>  <Reference>  (1) 
J Med Chem 56 (11), 4611-4618 (2013)

>  <Pubmed ID>  (1) 
23731360

>  <DOI>  (1) 
10.1021/jm400364h

$$$$
