4wnv_ligand_365
     RDKit          2D

 27 31  0  0  0  0  0  0  0  0999 V2000
    0.0000   -0.0000   -0.0000 O   0  0  0  0  0  0  0  0  0  0  0  0
    1.0523    0.6274   -0.0000 C   0  0  0  0  0  0  0  0  0  0  0  0
    2.3071   -0.1012   -0.0000 C   0  0  0  0  0  0  0  0  0  0  0  0
    1.0321    2.1249   -0.0000 C   0  0  0  0  0  0  0  0  0  0  0  0
    3.5618    0.6881   -0.0000 C   0  0  0  0  0  0  0  0  0  0  0  0
    2.2666    2.8737   -0.0000 C   0  0  0  0  0  0  0  0  0  0  0  0
    3.5415    2.1856   -0.0000 C   0  0  0  0  0  0  0  0  0  0  0  0
    4.8367   -0.0405   -0.0000 C   0  0  0  0  0  0  0  0  0  0  0  0
    4.7962    2.9344   -0.0000 C   0  0  0  0  0  0  0  0  0  0  0  0
    6.0914    0.7488   -0.0000 C   0  0  0  0  0  0  0  0  0  0  0  0
    4.8367   -1.5583   -0.0000 C   0  0  0  0  0  0  0  0  0  0  0  0
    6.0510    2.2463   -0.0000 C   0  0  0  0  0  0  0  0  0  0  0  0
    4.7558    4.4522   -0.0000 C   0  0  0  0  0  0  0  0  0  0  0  0
    6.1521   -2.2868   -0.0000 C   0  0  0  0  0  0  0  0  0  0  0  0
    7.3057    2.9951   -0.0000 C   0  0  0  0  0  0  0  0  0  0  0  0
    6.0105    5.2212   -0.0000 C   0  0  0  0  0  0  0  0  0  0  0  0
    6.1521   -3.8046   -0.0000 C   0  0  0  0  0  0  0  0  0  0  0  0
    7.4473   -1.4773   -0.0000 C   0  0  0  0  0  0  0  0  0  0  0  0
    7.2854    4.4927   -0.0000 C   0  0  0  0  0  0  0  0  0  0  0  0
    9.8556    2.9951   -0.0000 C   0  0  0  0  0  0  0  0  0  0  0  0
    7.4676   -4.5332   -0.0000 C   0  0  0  0  0  0  0  0  0  0  0  0
    8.7628   -2.2059   -0.0000 C   0  0  0  0  0  0  0  0  0  0  0  0
    8.5402    5.2819   -0.0000 C   0  0  0  0  0  0  0  0  0  0  0  0
    7.2652    5.7474   -0.0000 C   0  0  0  0  0  0  0  0  0  0  0  0
    9.8353    4.5332   -0.0000 C   0  0  0  0  0  0  0  0  0  0  0  0
    8.7628   -3.7237   -0.0000 C   0  0  0  0  0  0  0  0  0  0  0  0
    8.5199    6.5367   -0.0000 O   0  0  0  0  0  0  0  0  0  0  0  0
  1  2  1  0
  2  3  2  0
  2  4  1  0
  3  5  1  0
  4  6  2  0
  5  7  2  0
  5  8  1  0
  7  9  1  0
  8 10  1  0
  8 11  1  6
  9 12  1  0
  9 13  1  1
 11 14  1  0
 12 15  1  0
 13 16  1  0
 14 17  2  0
 14 18  1  0
 15 19  1  0
 15 20  1  1
 17 21  1  0
 18 22  2  0
 19 23  1  0
 19 24  1  1
 20 25  1  0
 21 26  2  0
 23 27  1  1
  6  7  1  0
 12 10  1  6
 16 19  1  0
 22 26  1  0
 23 25  1  0
M  END
>  <MolRegNo>  (1) 
2058266

>  <m>  (1) 
=

>  <Value>  (1) 
100

>  <Unit>  (1) 
nM

>  <Type>  (1) 
Ki

>  <pValue>  (1) 
7

>  <Ligand Efficiency>  (1) 
0.35

>  <Binding Efficiency>  (1) 
19.31

>  <Surface Efficiency>  (1) 
17.3

>  <Assay Index>  (1) 
985353

>  <Assay Category>  (1) 


>  <Assay Organism>  (1) 
Homo sapiens

>  <Target ID>  (1) 
65

>  <Target Name>  (1) 
Cytochrome P450 19A1

>  <Target Organism>  (1) 
Homo sapiens

>  <Target Description>  (1) 
Target is a single protein chain

>  <Sequence Accession>  (1) 
P11511

>  <Reference>  (1) 


>  <Pubmed ID>  (1) 
26469743

>  <DOI>  (1) 
10.1016/j.ejmech.2015.09.038

$$$$
