4wnv_ligand_18
     RDKit          2D

 34 37  0  0  0  0  0  0  0  0999 V2000
    0.0000   -0.0000   -0.0000 O   0  0  0  0  0  0  0  0  0  0  0  0
   -0.0119   -1.4917   -0.0000 C   0  0  0  0  0  0  0  0  0  0  0  0
   -1.3247   -2.2316   -0.0000 N   0  0  0  0  0  0  0  0  0  0  0  0
    1.2769   -2.2316   -0.0000 C   0  0  0  0  0  0  0  0  0  0  0  0
   -2.6374   -1.4679   -0.0000 C   0  0  0  0  0  0  0  0  0  0  0  0
   -1.3366   -3.7234   -0.0000 C   0  0  0  0  0  0  0  0  0  0  0  0
    1.2650   -3.7353   -0.0000 C   0  0  0  0  0  0  0  0  0  0  0  0
    2.5777   -1.4679   -0.0000 C   0  0  0  0  0  0  0  0  0  0  0  0
   -3.9620   -2.2078   -0.0000 C   0  0  0  0  0  0  0  0  0  0  0  0
   -2.6493    0.0477   -0.0000 C   0  0  0  0  0  0  0  0  0  0  0  0
   -2.6493   -4.4633   -0.0000 C   0  0  0  0  0  0  0  0  0  0  0  0
   -0.0477   -4.4633   -0.0000 C   0  0  0  0  0  0  0  0  0  0  0  0
    2.5538   -4.4752   -0.0000 C   0  0  0  0  0  0  0  0  0  0  0  0
    3.8666   -2.2078   -0.0000 C   0  0  0  0  0  0  0  0  0  0  0  0
   -5.2748   -1.4440   -0.0000 C   0  0  0  0  0  0  0  0  0  0  0  0
   -3.9620    0.8115   -0.0000 C   0  0  0  0  0  0  0  0  0  0  0  0
   -2.6613   -5.9669   -0.0000 C   0  0  0  0  0  0  0  0  0  0  0  0
   -0.0597   -5.9669   -0.0000 C   0  0  0  0  0  0  0  0  0  0  0  0
    3.8546   -3.7114   -0.0000 C   0  0  0  0  0  0  0  0  0  0  0  0
   -5.2867    0.0716   -0.0000 C   0  0  0  0  0  0  0  0  0  0  0  0
   -1.3724   -6.7068   -0.0000 N   0  0  0  0  0  0  0  0  0  0  0  0
   -1.3843   -8.1986   -0.0000 C   0  0  0  0  0  0  0  0  0  0  0  0
   -0.0955   -8.9385   -0.0000 C   0  0  0  0  0  0  0  0  0  0  0  0
    1.1934   -8.1747   -0.0000 O   0  0  0  0  0  0  0  0  0  0  0  0
   -0.1074  -10.4302   -0.0000 C   0  0  0  0  0  0  0  0  0  0  0  0
    1.1815  -11.1701   -0.0000 O   0  0  0  0  0  0  0  0  0  0  0  0
    1.1695  -12.6618   -0.0000 C   0  0  0  0  0  0  0  0  0  0  0  0
    2.4584  -13.4017   -0.0000 C   0  0  0  0  0  0  0  0  0  0  0  0
   -0.1432  -13.4017   -0.0000 C   0  0  0  0  0  0  0  0  0  0  0  0
    2.4464  -14.9054   -0.0000 C   0  0  0  0  0  0  0  0  0  0  0  0
   -0.1551  -14.9054   -0.0000 C   0  0  0  0  0  0  0  0  0  0  0  0
    1.1337  -15.6453   -0.0000 C   0  0  0  0  0  0  0  0  0  0  0  0
    1.1337  -17.1370   -0.0000 O   0  0  0  0  0  0  0  0  0  0  0  0
    2.4226  -17.8650   -0.0000 C   0  0  0  0  0  0  0  0  0  0  0  0
  1  2  2  0
  2  3  1  0
  2  4  1  0
  3  5  1  0
  3  6  1  0
  4  7  2  0
  4  8  1  0
  5  9  2  0
  5 10  1  0
  6 11  1  0
  6 12  1  0
  7 13  1  0
  8 14  2  0
  9 15  1  0
 10 16  2  0
 11 17  1  0
 12 18  1  0
 13 19  2  0
 15 20  2  0
 17 21  1  0
 21 22  1  0
 22 23  1  0
 23 24  1  0
 23 25  1  0
 25 26  1  0
 26 27  1  0
 27 28  2  0
 27 29  1  0
 28 30  1  0
 29 31  2  0
 30 32  2  0
 32 33  1  0
 33 34  1  0
 14 19  1  0
 16 20  1  0
 18 21  1  0
 31 32  1  0
M  END
>  <MolRegNo>  (1) 
96246

>  <m>  (1) 
=

>  <Value>  (1) 
2000

>  <Unit>  (1) 
nM

>  <Type>  (1) 
Ki

>  <pValue>  (1) 
5.7

>  <Ligand Efficiency>  (1) 
0

>  <Binding Efficiency>  (1) 
0

>  <Surface Efficiency>  (1) 
0

>  <Assay Index>  (1) 
51650

>  <Assay Category>  (1) 


>  <Assay Organism>  (1) 


>  <Target ID>  (1) 
11365

>  <Target Name>  (1) 
Cytochrome P450 2D6

>  <Target Organism>  (1) 
Homo sapiens

>  <Target Description>  (1) 
Target is a single protein chain

>  <Sequence Accession>  (1) 
P10635

>  <Reference>  (1) 
Bioorg Med Chem Lett 14 (9), 2025-2030 (2004)

>  <Pubmed ID>  (1) 
15080972

>  <DOI>  (1) 
10.1016/j.bmcl.2004.02.078

$$$$
