4wnv_ligand_283
     RDKit          2D

 23 26  0  0  0  0  0  0  0  0999 V2000
    0.0000   -0.0000   -0.0000 S   0  0  0  0  0  0  0  0  0  0  0  0
   -0.0205    1.5760   -0.0000 C   0  0  0  0  0  0  0  0  0  0  0  0
   -1.1053   -0.5936   -0.0000 C   0  0  0  0  0  0  0  0  0  0  0  0
   -1.3304    2.3538   -0.0000 C   0  0  0  0  0  0  0  0  0  0  0  0
    1.2485    2.3743   -0.0000 C   0  0  0  0  0  0  0  0  0  0  0  0
   -2.4357    1.7602   -0.0000 O   0  0  0  0  0  0  0  0  0  0  0  0
   -1.3509    3.8684   -0.0000 C   0  0  0  0  0  0  0  0  0  0  0  0
    1.2281    3.8889   -0.0000 C   0  0  0  0  0  0  0  0  0  0  0  0
    2.5380    1.6374   -0.0000 C   0  0  0  0  0  0  0  0  0  0  0  0
   -0.1023    4.6258   -0.0000 C   0  0  0  0  0  0  0  0  0  0  0  0
    2.4971    4.6462   -0.0000 C   0  0  0  0  0  0  0  0  0  0  0  0
    1.1871    5.1579   -0.0000 C   0  0  0  0  0  0  0  0  0  0  0  0
    3.8070    2.4357   -0.0000 C   0  0  0  0  0  0  0  0  0  0  0  0
    3.7661    3.9503   -0.0000 C   0  0  0  0  0  0  0  0  0  0  0  0
    2.4562    6.1813   -0.0000 C   0  0  0  0  0  0  0  0  0  0  0  0
    5.0351    4.7076   -0.0000 C   0  0  0  0  0  0  0  0  0  0  0  0
    3.7252    6.9591   -0.0000 C   0  0  0  0  0  0  0  0  0  0  0  0
    5.0146    6.2223   -0.0000 C   0  0  0  0  0  0  0  0  0  0  0  0
    7.6141    4.7076   -0.0000 C   0  0  0  0  0  0  0  0  0  0  0  0
    6.2837    7.0205   -0.0000 C   0  0  0  0  0  0  0  0  0  0  0  0
    4.9942    7.4913   -0.0000 C   0  0  0  0  0  0  0  0  0  0  0  0
    7.5936    6.2632   -0.0000 C   0  0  0  0  0  0  0  0  0  0  0  0
    6.2632    8.2895   -0.0000 O   0  0  0  0  0  0  0  0  0  0  0  0
  1  2  1  0
  1  3  1  0
  2  4  1  0
  2  5  2  0
  4  6  2  0
  4  7  1  0
  5  8  1  0
  5  9  1  0
  7 10  1  0
  8 11  1  0
  8 12  1  6
  9 13  1  0
 11 14  1  0
 11 15  1  6
 14 16  1  0
 15 17  1  0
 16 18  1  0
 16 19  1  6
 18 20  1  0
 18 21  1  6
 19 22  1  0
 20 23  2  0
  8 10  1  0
 14 13  1  1
 17 18  1  0
 20 22  1  0
M  END
>  <MolRegNo>  (1) 
2057821

>  <m>  (1) 
=

>  <Value>  (1) 
36

>  <Unit>  (1) 
nM

>  <Type>  (1) 
Ki

>  <pValue>  (1) 
7.44

>  <Ligand Efficiency>  (1) 
0.44

>  <Binding Efficiency>  (1) 
22.39

>  <Surface Efficiency>  (1) 
21.8

>  <Assay Index>  (1) 
985527

>  <Assay Category>  (1) 


>  <Assay Organism>  (1) 
Homo sapiens

>  <Target ID>  (1) 
65

>  <Target Name>  (1) 
Cytochrome P450 19A1

>  <Target Organism>  (1) 
Homo sapiens

>  <Target Description>  (1) 
Target is a single protein chain

>  <Sequence Accession>  (1) 
P11511

>  <Reference>  (1) 


>  <Pubmed ID>  (1) 
26469743

>  <DOI>  (1) 
10.1016/j.ejmech.2015.09.038

$$$$
