4wnv_ligand_68
     RDKit          2D

 22 25  0  0  0  0  0  0  0  0999 V2000
    0.0000   -0.0000   -0.0000 O   0  0  0  0  0  0  0  0  0  0  0  0
   -0.0125   -1.2141   -0.0000 C   0  0  0  0  0  0  0  0  0  0  0  0
    1.3017   -1.9651   -0.0000 C   0  0  0  0  0  0  0  0  0  0  0  0
   -1.3518   -1.9651   -0.0000 C   0  0  0  0  0  0  0  0  0  0  0  0
    1.2892   -3.4795   -0.0000 C   0  0  0  0  0  0  0  0  0  0  0  0
    2.6159   -1.1765   -0.0000 C   0  0  0  0  0  0  0  0  0  0  0  0
   -2.6785   -1.2016   -0.0000 N   0  0  0  0  0  0  0  0  0  0  0  0
   -1.3643   -3.5421   -0.0000 C   0  0  0  0  0  0  0  0  0  0  0  0
    2.6034   -4.2305   -0.0000 C   0  0  0  0  0  0  0  0  0  0  0  0
   -0.0501   -4.2305   -0.0000 C   0  0  0  0  0  0  0  0  0  0  0  0
    3.9176   -1.9275   -0.0000 C   0  0  0  0  0  0  0  0  0  0  0  0
   -4.0303   -1.9400   -0.0000 C   0  0  0  0  0  0  0  0  0  0  0  0
   -3.4420   -2.2780   -0.0000 C   0  0  0  0  0  0  0  0  0  0  0  0
   -2.6910   -4.2806   -0.0000 C   0  0  0  0  0  0  0  0  0  0  0  0
    3.9176   -3.4545   -0.0000 N   0  0  0  0  0  0  0  0  0  0  0  0
    2.5909   -5.7450   -0.0000 C   0  0  0  0  0  0  0  0  0  0  0  0
   -0.0626   -5.7450   -0.0000 C   0  0  0  0  0  0  0  0  0  0  0  0
   -4.0428   -3.5171   -0.0000 C   0  0  0  0  0  0  0  0  0  0  0  0
   -1.9150   -3.1792   -0.0000 C   0  0  0  0  0  0  0  0  0  0  0  0
    1.2516   -6.4960   -0.0000 C   0  0  0  0  0  0  0  0  0  0  0  0
   -5.3820   -4.2556   -0.0000 C   0  0  0  0  0  0  0  0  0  0  0  0
   -6.4459   -3.6172   -0.0000 C   0  0  0  0  0  0  0  0  0  0  0  0
  2  1  1  6
  2  3  1  0
  2  4  1  0
  3  5  1  0
  3  6  2  0
  4  7  1  0
  4  8  1  0
  5  9  2  0
  5 10  1  0
  6 11  1  0
  7 12  1  0
  7 13  1  0
  8 14  1  0
  9 15  1  0
  9 16  1  0
 10 17  2  0
 12 18  1  0
 13 19  1  0
 16 20  2  0
 18 21  1  0
 21 22  1  0
 11 15  2  0
 14 18  1  0
 14 19  1  0
 17 20  1  0
M  END
>  <MolRegNo>  (1) 
1363841

>  <m>  (1) 
=

>  <Value>  (1) 
9600

>  <Unit>  (1) 
nM

>  <Type>  (1) 
Ki

>  <pValue>  (1) 
5.02

>  <Ligand Efficiency>  (1) 
0

>  <Binding Efficiency>  (1) 
0

>  <Surface Efficiency>  (1) 
0

>  <Assay Index>  (1) 
122801

>  <Assay Category>  (1) 


>  <Assay Organism>  (1) 
Homo sapiens

>  <Target ID>  (1) 
11365

>  <Target Name>  (1) 
Cytochrome P450 2D6

>  <Target Organism>  (1) 
Homo sapiens

>  <Target Description>  (1) 
Target is a single protein chain

>  <Sequence Accession>  (1) 
P10635

>  <Reference>  (1) 
J Med Chem 36 (9), 1136-1145 (1993)

>  <Pubmed ID>  (1) 
8487254

>  <DOI>  (1) 
10.1021/jm00061a004

$$$$
