4wnv_ligand_26
     RDKit          2D

 37 40  0  0  0  0  0  0  0  0999 V2000
    0.0000   -0.0000   -0.0000 O   0  0  0  0  0  0  0  0  0  0  0  0
   -0.0119   -1.4861   -0.0000 C   0  0  0  0  0  0  0  0  0  0  0  0
    1.2721   -2.2232   -0.0000 N   0  0  0  0  0  0  0  0  0  0  0  0
   -1.3197   -2.2232   -0.0000 C   0  0  0  0  0  0  0  0  0  0  0  0
    2.5561   -1.4623   -0.0000 C   0  0  0  0  0  0  0  0  0  0  0  0
   -1.3315   -3.7093   -0.0000 N   0  0  0  0  0  0  0  0  0  0  0  0
   -2.6274   -1.4623   -0.0000 C   0  0  0  0  0  0  0  0  0  0  0  0
    2.5442    0.0476   -0.0000 C   0  0  0  0  0  0  0  0  0  0  0  0
   -2.6393   -4.4464   -0.0000 C   0  0  0  0  0  0  0  0  0  0  0  0
   -0.0476   -4.4464   -0.0000 C   0  0  0  0  0  0  0  0  0  0  0  0
   -2.6393    0.0476   -0.0000 C   0  0  0  0  0  0  0  0  0  0  0  0
   -3.9471   -2.1994   -0.0000 C   0  0  0  0  0  0  0  0  0  0  0  0
    3.8401    0.8084   -0.0000 C   0  0  0  0  0  0  0  0  0  0  0  0
    1.2364    0.8084   -0.0000 C   0  0  0  0  0  0  0  0  0  0  0  0
   -2.6512   -5.9444   -0.0000 C   0  0  0  0  0  0  0  0  0  0  0  0
   -0.0594   -5.9444   -0.0000 C   0  0  0  0  0  0  0  0  0  0  0  0
   -3.9471    0.8084   -0.0000 C   0  0  0  0  0  0  0  0  0  0  0  0
   -5.2548   -1.4385   -0.0000 C   0  0  0  0  0  0  0  0  0  0  0  0
    3.8282    2.3183   -0.0000 C   0  0  0  0  0  0  0  0  0  0  0  0
    1.2245    2.3183   -0.0000 C   0  0  0  0  0  0  0  0  0  0  0  0
   -1.3672   -6.6815   -0.0000 N   0  0  0  0  0  0  0  0  0  0  0  0
   -5.2667    0.0713   -0.0000 C   0  0  0  0  0  0  0  0  0  0  0  0
    2.5085    3.0911   -0.0000 C   0  0  0  0  0  0  0  0  0  0  0  0
   -1.3791   -8.1676   -0.0000 C   0  0  0  0  0  0  0  0  0  0  0  0
   -6.5864    0.8441   -0.0000 C   0  0  0  0  0  0  0  0  0  0  0  0
   -0.0951   -8.9047   -0.0000 C   0  0  0  0  0  0  0  0  0  0  0  0
    1.1889   -8.1438   -0.0000 O   0  0  0  0  0  0  0  0  0  0  0  0
   -0.1070  -10.3908   -0.0000 C   0  0  0  0  0  0  0  0  0  0  0  0
    1.1770  -11.1279   -0.0000 O   0  0  0  0  0  0  0  0  0  0  0  0
    1.1651  -12.6140   -0.0000 C   0  0  0  0  0  0  0  0  0  0  0  0
    2.4491  -13.3511   -0.0000 C   0  0  0  0  0  0  0  0  0  0  0  0
   -0.1427  -13.3511   -0.0000 C   0  0  0  0  0  0  0  0  0  0  0  0
    2.4372  -14.8490   -0.0000 C   0  0  0  0  0  0  0  0  0  0  0  0
    3.7450  -12.5783   -0.0000 C   0  0  0  0  0  0  0  0  0  0  0  0
   -0.1546  -14.8490   -0.0000 C   0  0  0  0  0  0  0  0  0  0  0  0
   -1.4623  -12.5783   -0.0000 C   0  0  0  0  0  0  0  0  0  0  0  0
    1.1294  -15.5861   -0.0000 C   0  0  0  0  0  0  0  0  0  0  0  0
  1  2  2  0
  2  3  1  0
  2  4  1  0
  3  5  1  0
  4  6  1  0
  4  7  1  0
  5  8  1  0
  6  9  1  0
  6 10  1  0
  7 11  2  0
  7 12  1  0
  8 13  2  0
  8 14  1  0
  9 15  1  0
 10 16  1  0
 11 17  1  0
 12 18  2  0
 13 19  1  0
 14 20  2  0
 15 21  1  0
 17 22  2  0
 19 23  2  0
 21 24  1  0
 22 25  1  0
 24 26  1  0
 26 27  1  0
 26 28  1  0
 28 29  1  0
 29 30  1  0
 30 31  2  0
 30 32  1  0
 31 33  1  0
 31 34  1  0
 32 35  2  0
 32 36  1  0
 33 37  2  0
 16 21  1  0
 18 22  1  0
 20 23  1  0
 35 37  1  0
M  END
>  <MolRegNo>  (1) 
96887

>  <m>  (1) 
=

>  <Value>  (1) 
2000

>  <Unit>  (1) 
nM

>  <Type>  (1) 
Ki

>  <pValue>  (1) 
5.7

>  <Ligand Efficiency>  (1) 
0

>  <Binding Efficiency>  (1) 
0

>  <Surface Efficiency>  (1) 
0

>  <Assay Index>  (1) 
51650

>  <Assay Category>  (1) 


>  <Assay Organism>  (1) 


>  <Target ID>  (1) 
11365

>  <Target Name>  (1) 
Cytochrome P450 2D6

>  <Target Organism>  (1) 
Homo sapiens

>  <Target Description>  (1) 
Target is a single protein chain

>  <Sequence Accession>  (1) 
P10635

>  <Reference>  (1) 
Bioorg Med Chem Lett 14 (9), 2025-2030 (2004)

>  <Pubmed ID>  (1) 
15080972

>  <DOI>  (1) 
10.1016/j.bmcl.2004.02.078

$$$$
