4wnv_ligand_295
     RDKit          2D

 33 37  0  0  0  0  0  0  0  0999 V2000
    0.0000   -0.0000   -0.0000 O   0  0  0  0  0  0  0  0  0  0  0  0
    1.0323    0.6477   -0.0000 N   0  0  0  0  0  0  0  0  0  0  0  0
    2.0847    0.0607   -0.0000 O   0  0  0  0  0  0  0  0  0  0  0  0
    0.9918    2.2062   -0.0000 C   0  0  0  0  0  0  0  0  0  0  0  0
    2.2872    3.0158   -0.0000 C   0  0  0  0  0  0  0  0  0  0  0  0
   -0.3643    2.9753   -0.0000 C   0  0  0  0  0  0  0  0  0  0  0  0
    2.2467    4.5743   -0.0000 C   0  0  0  0  0  0  0  0  0  0  0  0
   -0.4048    4.5338   -0.0000 C   0  0  0  0  0  0  0  0  0  0  0  0
    0.8906    5.3434   -0.0000 C   0  0  0  0  0  0  0  0  0  0  0  0
    0.8501    6.9019   -0.0000 C   0  0  0  0  0  0  0  0  0  0  0  0
   -0.5060    7.6711   -0.0000 C   0  0  0  0  0  0  0  0  0  0  0  0
   -0.5465    9.2296   -0.0000 C   0  0  0  0  0  0  0  0  0  0  0  0
   -1.9026    9.9987   -0.0000 C   0  0  0  0  0  0  0  0  0  0  0  0
   -1.9431   11.4965   -0.0000 C   0  0  0  0  0  0  0  0  0  0  0  0
   -3.1980    9.2498   -0.0000 C   0  0  0  0  0  0  0  0  0  0  0  0
   -3.2384   12.2251   -0.0000 C   0  0  0  0  0  0  0  0  0  0  0  0
   -0.6882   12.2454   -0.0000 C   0  0  0  0  0  0  0  0  0  0  0  0
   -4.5136   10.0189   -0.0000 C   0  0  0  0  0  0  0  0  0  0  0  0
   -4.5338   11.5167   -0.0000 C   0  0  0  0  0  0  0  0  0  0  0  0
   -3.2789   13.7432   -0.0000 C   0  0  0  0  0  0  0  0  0  0  0  0
   -0.7084   13.7432   -0.0000 C   0  0  0  0  0  0  0  0  0  0  0  0
    1.8621   12.2454   -0.0000 C   0  0  0  0  0  0  0  0  0  0  0  0
   -5.8090    9.2701   -0.0000 C   0  0  0  0  0  0  0  0  0  0  0  0
   -5.8494   12.2454   -0.0000 C   0  0  0  0  0  0  0  0  0  0  0  0
   -4.5743   12.7716   -0.0000 C   0  0  0  0  0  0  0  0  0  0  0  0
   -2.0240   14.5123   -0.0000 C   0  0  0  0  0  0  0  0  0  0  0  0
    0.5465   14.5325   -0.0000 C   0  0  0  0  0  0  0  0  0  0  0  0
   -0.7287   14.9981   -0.0000 C   0  0  0  0  0  0  0  0  0  0  0  0
    1.8419   13.7836   -0.0000 C   0  0  0  0  0  0  0  0  0  0  0  0
   -7.1043   10.0392   -0.0000 C   0  0  0  0  0  0  0  0  0  0  0  0
   -7.1246   11.5370   -0.0000 C   0  0  0  0  0  0  0  0  0  0  0  0
    0.5262   15.7874   -0.0000 O   0  0  0  0  0  0  0  0  0  0  0  0
   -8.1973    9.4522   -0.0000 O   0  0  0  0  0  0  0  0  0  0  0  0
  1  2  2  0
  2  3  1  0
  2  4  1  0
  4  5  2  0
  4  6  1  0
  5  7  1  0
  6  8  2  0
  7  9  2  0
  9 10  1  0
 10 11  1  0
 11 12  1  0
 13 12  1  6
 14 13  1  6
 13 15  1  0
 14 16  1  0
 14 17  1  0
 15 18  1  0
 16 19  1  0
 16 20  1  1
 17 21  1  0
 17 22  1  1
 18 23  2  0
 19 24  1  0
 19 25  1  1
 20 26  1  0
 21 27  1  0
 21 28  1  1
 22 29  1  0
 23 30  1  0
 24 31  2  0
 27 32  2  0
 30 33  2  0
  8  9  1  0
 18 19  1  0
 21 26  1  0
 27 29  1  0
 30 31  1  0
M  CHG  2   2   1   3  -1
M  END
>  <MolRegNo>  (1) 
2057983

>  <m>  (1) 
=

>  <Value>  (1) 
7

>  <Unit>  (1) 
nM

>  <Type>  (1) 
Ki

>  <pValue>  (1) 
8.15

>  <Ligand Efficiency>  (1) 
0.34

>  <Binding Efficiency>  (1) 
18.22

>  <Surface Efficiency>  (1) 
10.55

>  <Assay Index>  (1) 
985527

>  <Assay Category>  (1) 


>  <Assay Organism>  (1) 
Homo sapiens

>  <Target ID>  (1) 
65

>  <Target Name>  (1) 
Cytochrome P450 19A1

>  <Target Organism>  (1) 
Homo sapiens

>  <Target Description>  (1) 
Target is a single protein chain

>  <Sequence Accession>  (1) 
P11511

>  <Reference>  (1) 


>  <Pubmed ID>  (1) 
26469743

>  <DOI>  (1) 
10.1016/j.ejmech.2015.09.038

$$$$
