4wnv_ligand_343
     RDKit          2D

 23 27  0  0  0  0  0  0  0  0999 V2000
    0.0000   -0.0000   -0.0000 S   0  0  0  0  0  0  0  0  0  0  0  0
   -0.7916    1.1975   -0.0000 C   0  0  0  0  0  0  0  0  0  0  0  0
   -1.5628   -0.0000   -0.0000 C   0  0  0  0  0  0  0  0  0  0  0  0
   -2.1515    1.9688   -0.0000 C   0  0  0  0  0  0  0  0  0  0  0  0
   -2.1718    0.5074   -0.0000 C   0  0  0  0  0  0  0  0  0  0  0  0
   -0.8931    2.7198   -0.0000 C   0  0  0  0  0  0  0  0  0  0  0  0
   -3.4707    2.6995   -0.0000 C   0  0  0  0  0  0  0  0  0  0  0  0
   -3.4707   -0.2436   -0.0000 C   0  0  0  0  0  0  0  0  0  0  0  0
   -0.8931   -0.2233   -0.0000 C   0  0  0  0  0  0  0  0  0  0  0  0
    0.3653    2.0297   -0.0000 C   0  0  0  0  0  0  0  0  0  0  0  0
   -0.9337    4.2420   -0.0000 C   0  0  0  0  0  0  0  0  0  0  0  0
   -4.7494    1.9891   -0.0000 C   0  0  0  0  0  0  0  0  0  0  0  0
   -4.7697    0.5277   -0.0000 C   0  0  0  0  0  0  0  0  0  0  0  0
    0.3653    0.5683   -0.0000 C   0  0  0  0  0  0  0  0  0  0  0  0
    1.6237    2.7807   -0.0000 C   0  0  0  0  0  0  0  0  0  0  0  0
    0.3247    5.0133   -0.0000 C   0  0  0  0  0  0  0  0  0  0  0  0
   -5.8658   -0.0609   -0.0000 O   0  0  0  0  0  0  0  0  0  0  0  0
    1.6034    4.2826   -0.0000 C   0  0  0  0  0  0  0  0  0  0  0  0
    4.1811    2.7807   -0.0000 C   0  0  0  0  0  0  0  0  0  0  0  0
    2.8618    5.0742   -0.0000 C   0  0  0  0  0  0  0  0  0  0  0  0
    1.5831    5.5410   -0.0000 C   0  0  0  0  0  0  0  0  0  0  0  0
    4.1608    4.3232   -0.0000 C   0  0  0  0  0  0  0  0  0  0  0  0
    2.8415    6.3326   -0.0000 O   0  0  0  0  0  0  0  0  0  0  0  0
  2  1  1  0
  1  3  1  0
  4  2  1  0
  4  5  1  0
  4  6  1  0
  4  7  1  1
  5  8  2  0
  5  9  1  0
  6 10  1  0
  6 11  1  1
  7 12  1  0
  8 13  1  0
  9 14  1  0
 10 15  1  0
 11 16  1  0
 13 17  2  0
 15 18  1  0
 15 19  1  1
 18 20  1  0
 18 21  1  1
 19 22  1  0
 20 23  2  0
  2  3  1  6
 10 14  1  6
 12 13  1  0
 16 18  1  0
 20 22  1  0
M  END
>  <MolRegNo>  (1) 
2058082

>  <m>  (1) 
=

>  <Value>  (1) 
2

>  <Unit>  (1) 
nM

>  <Type>  (1) 
Ki

>  <pValue>  (1) 
8.7

>  <Ligand Efficiency>  (1) 
0.52

>  <Binding Efficiency>  (1) 
26.32

>  <Surface Efficiency>  (1) 
25.48

>  <Assay Index>  (1) 
985548

>  <Assay Category>  (1) 


>  <Assay Organism>  (1) 
Homo sapiens

>  <Target ID>  (1) 
65

>  <Target Name>  (1) 
Cytochrome P450 19A1

>  <Target Organism>  (1) 
Homo sapiens

>  <Target Description>  (1) 
Target is a single protein chain

>  <Sequence Accession>  (1) 
P11511

>  <Reference>  (1) 


>  <Pubmed ID>  (1) 
26469743

>  <DOI>  (1) 
10.1016/j.ejmech.2015.09.038

$$$$
