4wnv_ligand_215
     RDKit          2D

 30 34  0  0  0  0  0  0  0  0999 V2000
    0.0000   -0.0000   -0.0000 O   0  0  0  0  0  0  0  0  0  0  0  0
    1.0498    0.6259   -0.0000 C   0  0  0  0  0  0  0  0  0  0  0  0
    1.0296    2.1198   -0.0000 C   0  0  0  0  0  0  0  0  0  0  0  0
    2.3015   -0.1009   -0.0000 C   0  0  0  0  0  0  0  0  0  0  0  0
    2.2611    2.8668   -0.0000 C   0  0  0  0  0  0  0  0  0  0  0  0
   -0.3028    2.9072   -0.0000 C   0  0  0  0  0  0  0  0  0  0  0  0
    3.5532    0.6864   -0.0000 C   0  0  0  0  0  0  0  0  0  0  0  0
    3.5330    2.1804   -0.0000 C   0  0  0  0  0  0  0  0  0  0  0  0
   -0.3230    4.4617   -0.0000 C   0  0  0  0  0  0  0  0  0  0  0  0
    4.8251   -0.0404   -0.0000 C   0  0  0  0  0  0  0  0  0  0  0  0
    4.7847    2.9274   -0.0000 C   0  0  0  0  0  0  0  0  0  0  0  0
    3.4927    3.4321   -0.0000 C   0  0  0  0  0  0  0  0  0  0  0  0
   -1.6555    5.2491   -0.0000 C   0  0  0  0  0  0  0  0  0  0  0  0
    6.0768    0.7470   -0.0000 C   0  0  0  0  0  0  0  0  0  0  0  0
    6.0364    2.2410   -0.0000 C   0  0  0  0  0  0  0  0  0  0  0  0
    4.7444    4.4415   -0.0000 C   0  0  0  0  0  0  0  0  0  0  0  0
   -1.6757    6.8036   -0.0000 C   0  0  0  0  0  0  0  0  0  0  0  0
    7.2881    2.9879   -0.0000 C   0  0  0  0  0  0  0  0  0  0  0  0
    5.9961    5.2087   -0.0000 C   0  0  0  0  0  0  0  0  0  0  0  0
   -0.3634    7.5708   -0.0000 C   0  0  0  0  0  0  0  0  0  0  0  0
   -3.0081    7.5910   -0.0000 C   0  0  0  0  0  0  0  0  0  0  0  0
    7.2680    4.4819   -0.0000 C   0  0  0  0  0  0  0  0  0  0  0  0
    9.8319    2.9879   -0.0000 C   0  0  0  0  0  0  0  0  0  0  0  0
   -0.3634    9.1253   -0.0000 C   0  0  0  0  0  0  0  0  0  0  0  0
   -3.0081    9.1455   -0.0000 C   0  0  0  0  0  0  0  0  0  0  0  0
    8.5197    5.2693   -0.0000 C   0  0  0  0  0  0  0  0  0  0  0  0
    7.2478    5.7336   -0.0000 C   0  0  0  0  0  0  0  0  0  0  0  0
    9.8117    4.5223   -0.0000 C   0  0  0  0  0  0  0  0  0  0  0  0
   -1.6959    9.9127   -0.0000 C   0  0  0  0  0  0  0  0  0  0  0  0
    8.4995    6.5210   -0.0000 O   0  0  0  0  0  0  0  0  0  0  0  0
  1  2  2  0
  2  3  1  0
  2  4  1  0
  3  5  2  0
  3  6  1  0
  4  7  2  0
  5  8  1  0
  6  9  1  0
  7 10  1  0
  8 11  1  0
  8 12  1  1
  9 13  1  0
 10 14  1  0
 11 15  1  0
 11 16  1  1
 13 17  1  0
 15 18  1  0
 16 19  1  0
 17 20  2  0
 17 21  1  0
 18 22  1  0
 18 23  1  1
 20 24  1  0
 21 25  2  0
 22 26  1  0
 22 27  1  1
 23 28  1  0
 24 29  2  0
 26 30  2  0
  7  8  1  0
 15 14  1  6
 19 22  1  0
 25 29  1  0
 26 28  1  0
M  END
>  <MolRegNo>  (1) 
2057813

>  <m>  (1) 
=

>  <Value>  (1) 
16.1

>  <Unit>  (1) 
nM

>  <Type>  (1) 
Ki

>  <pValue>  (1) 
7.79

>  <Ligand Efficiency>  (1) 
0.35

>  <Binding Efficiency>  (1) 
19.36

>  <Surface Efficiency>  (1) 
22.83

>  <Assay Index>  (1) 
985353

>  <Assay Category>  (1) 


>  <Assay Organism>  (1) 
Homo sapiens

>  <Target ID>  (1) 
65

>  <Target Name>  (1) 
Cytochrome P450 19A1

>  <Target Organism>  (1) 
Homo sapiens

>  <Target Description>  (1) 
Target is a single protein chain

>  <Sequence Accession>  (1) 
P11511

>  <Reference>  (1) 


>  <Pubmed ID>  (1) 
26469743

>  <DOI>  (1) 
10.1016/j.ejmech.2015.09.038

$$$$
