4wnv_ligand_81
     RDKit          2D

 29 32  0  0  0  0  0  0  0  0999 V2000
    0.0000   -0.0000   -0.0000 Cl  0  0  0  0  0  0  0  0  0  0  0  0
   -1.0665   -0.5992   -0.0000 C   0  0  0  0  0  0  0  0  0  0  0  0
   -2.3967    0.1678   -0.0000 C   0  0  0  0  0  0  0  0  0  0  0  0
   -1.0785   -2.1091   -0.0000 C   0  0  0  0  0  0  0  0  0  0  0  0
   -3.7268   -0.5752   -0.0000 C   0  0  0  0  0  0  0  0  0  0  0  0
   -2.4087   -2.8520   -0.0000 C   0  0  0  0  0  0  0  0  0  0  0  0
   -3.7388   -2.0851   -0.0000 C   0  0  0  0  0  0  0  0  0  0  0  0
   -5.0690   -2.8401   -0.0000 C   0  0  0  0  0  0  0  0  0  0  0  0
   -5.0809   -4.3500   -0.0000 C   0  0  0  0  0  0  0  0  0  0  0  0
   -6.4111   -5.1049   -0.0000 C   0  0  0  0  0  0  0  0  0  0  0  0
   -7.7532   -5.7520   -0.0000 O   0  0  0  0  0  0  0  0  0  0  0  0
   -6.5309   -3.6190   -0.0000 O   0  0  0  0  0  0  0  0  0  0  0  0
   -6.4231   -6.6148   -0.0000 C   0  0  0  0  0  0  0  0  0  0  0  0
   -8.7838   -4.6136   -0.0000 C   0  0  0  0  0  0  0  0  0  0  0  0
   -8.0289   -3.2954   -0.0000 C   0  0  0  0  0  0  0  0  0  0  0  0
   -5.1169   -7.3578   -0.0000 N   0  0  0  0  0  0  0  0  0  0  0  0
  -10.3057   -4.7694   -0.0000 C   0  0  0  0  0  0  0  0  0  0  0  0
   -3.7628   -6.7107   -0.0000 C   0  0  0  0  0  0  0  0  0  0  0  0
   -4.9851   -8.8437   -0.0000 C   0  0  0  0  0  0  0  0  0  0  0  0
  -10.9288   -6.1475   -0.0000 S   0  0  0  0  0  0  0  0  0  0  0  0
   -2.7562   -7.8251   -0.0000 N   0  0  0  0  0  0  0  0  0  0  0  0
   -3.5111   -9.1433   -0.0000 C   0  0  0  0  0  0  0  0  0  0  0  0
  -12.4507   -6.3032   -0.0000 C   0  0  0  0  0  0  0  0  0  0  0  0
  -13.0738   -7.6813   -0.0000 C   0  0  0  0  0  0  0  0  0  0  0  0
  -13.3614   -5.0570   -0.0000 C   0  0  0  0  0  0  0  0  0  0  0  0
  -14.5957   -7.8371   -0.0000 C   0  0  0  0  0  0  0  0  0  0  0  0
  -14.8833   -5.2128   -0.0000 C   0  0  0  0  0  0  0  0  0  0  0  0
  -15.5065   -6.5908   -0.0000 C   0  0  0  0  0  0  0  0  0  0  0  0
  -16.7288   -6.7107   -0.0000 N   0  0  0  0  0  0  0  0  0  0  0  0
  1  2  1  0
  2  3  2  0
  2  4  1  0
  3  5  1  0
  4  6  2  0
  5  7  2  0
  7  8  1  0
  8  9  1  0
 10  9  1  1
 10 11  1  0
 10 12  1  0
 10 13  1  0
 11 14  1  0
 12 15  1  0
 13 16  1  0
 14 17  1  6
 16 18  1  0
 16 19  1  0
 17 20  1  0
 18 21  2  0
 19 22  2  0
 20 23  1  0
 23 24  2  0
 23 25  1  0
 24 26  1  0
 25 27  2  0
 26 28  2  0
 28 29  1  0
  6  7  1  0
 14 15  1  0
 21 22  1  0
 27 28  1  0
M  END
>  <MolRegNo>  (1) 
114153

>  <m>  (1) 
=

>  <Value>  (1) 
13

>  <Unit>  (1) 
nM

>  <Type>  (1) 
Ki

>  <pValue>  (1) 
7.89

>  <Ligand Efficiency>  (1) 
0.37

>  <Binding Efficiency>  (1) 
18.34

>  <Surface Efficiency>  (1) 
12.66

>  <Assay Index>  (1) 
51256

>  <Assay Category>  (1) 


>  <Assay Organism>  (1) 


>  <Target ID>  (1) 
65

>  <Target Name>  (1) 
Cytochrome P450 19A1

>  <Target Organism>  (1) 
Homo sapiens

>  <Target Description>  (1) 
Target is a single protein chain

>  <Sequence Accession>  (1) 
P11511

>  <Reference>  (1) 
J Med Chem 36 (15), 2235-2237 (1993)

>  <Pubmed ID>  (1) 
8340925

>  <DOI>  (1) 
10.1021/jm00067a022

$$$$
