4wnv_ligand_370
     RDKit          2D

 29 33  0  0  0  0  0  0  0  0999 V2000
    0.0000   -0.0000   -0.0000 Br  0  0  0  0  0  0  0  0  0  0  0  0
   -0.0404    1.2510   -0.0000 C   0  0  0  0  0  0  0  0  0  0  0  0
    1.2510    2.0581   -0.0000 C   0  0  0  0  0  0  0  0  0  0  0  0
   -1.3922    2.0177   -0.0000 C   0  0  0  0  0  0  0  0  0  0  0  0
    1.2106    3.6117   -0.0000 C   0  0  0  0  0  0  0  0  0  0  0  0
   -1.4326    3.5714   -0.0000 C   0  0  0  0  0  0  0  0  0  0  0  0
   -0.1412    4.3785   -0.0000 C   0  0  0  0  0  0  0  0  0  0  0  0
   -0.1816    5.9321   -0.0000 S   0  0  0  0  0  0  0  0  0  0  0  0
   -1.5335    6.6988   -0.0000 C   0  0  0  0  0  0  0  0  0  0  0  0
   -1.5738    8.1919   -0.0000 C   0  0  0  0  0  0  0  0  0  0  0  0
   -2.8248    5.9523   -0.0000 C   0  0  0  0  0  0  0  0  0  0  0  0
   -2.8652    8.9183   -0.0000 C   0  0  0  0  0  0  0  0  0  0  0  0
   -0.3228    8.9385   -0.0000 C   0  0  0  0  0  0  0  0  0  0  0  0
   -4.1363    6.7190   -0.0000 C   0  0  0  0  0  0  0  0  0  0  0  0
   -4.1565    8.2121   -0.0000 C   0  0  0  0  0  0  0  0  0  0  0  0
   -2.9055   10.4316   -0.0000 C   0  0  0  0  0  0  0  0  0  0  0  0
   -0.3430   10.4316   -0.0000 C   0  0  0  0  0  0  0  0  0  0  0  0
    2.2195    8.9385   -0.0000 C   0  0  0  0  0  0  0  0  0  0  0  0
   -5.4277    5.9725   -0.0000 C   0  0  0  0  0  0  0  0  0  0  0  0
   -5.4680    8.9385   -0.0000 C   0  0  0  0  0  0  0  0  0  0  0  0
   -4.1969    9.4631   -0.0000 C   0  0  0  0  0  0  0  0  0  0  0  0
   -1.6545   11.1984   -0.0000 C   0  0  0  0  0  0  0  0  0  0  0  0
    0.9080   11.2185   -0.0000 C   0  0  0  0  0  0  0  0  0  0  0  0
   -0.3632   11.6826   -0.0000 C   0  0  0  0  0  0  0  0  0  0  0  0
    2.1993   10.4720   -0.0000 C   0  0  0  0  0  0  0  0  0  0  0  0
   -6.7190    6.7392   -0.0000 C   0  0  0  0  0  0  0  0  0  0  0  0
   -6.7392    8.2323   -0.0000 C   0  0  0  0  0  0  0  0  0  0  0  0
    0.8878   12.4695   -0.0000 O   0  0  0  0  0  0  0  0  0  0  0  0
   -7.8086    6.1540   -0.0000 O   0  0  0  0  0  0  0  0  0  0  0  0
  1  2  1  0
  2  3  2  0
  2  4  1  0
  3  5  1  0
  4  6  2  0
  5  7  2  0
  7  8  1  0
  9  8  1  6
 10  9  1  6
  9 11  1  0
 10 12  1  0
 10 13  1  0
 11 14  1  0
 12 15  1  0
 12 16  1  1
 13 17  1  0
 13 18  1  1
 14 19  2  0
 15 20  1  0
 15 21  1  1
 16 22  1  0
 17 23  1  0
 17 24  1  1
 18 25  1  0
 19 26  1  0
 20 27  2  0
 23 28  2  0
 26 29  2  0
  6  7  1  0
 14 15  1  0
 17 22  1  0
 23 25  1  0
 26 27  1  0
M  END
>  <MolRegNo>  (1) 
2058261

>  <m>  (1) 
=

>  <Value>  (1) 
12

>  <Unit>  (1) 
nM

>  <Type>  (1) 
Ki

>  <pValue>  (1) 
7.92

>  <Ligand Efficiency>  (1) 
0.37

>  <Binding Efficiency>  (1) 
16.8

>  <Surface Efficiency>  (1) 
23.2

>  <Assay Index>  (1) 
985542

>  <Assay Category>  (1) 


>  <Assay Organism>  (1) 
Homo sapiens

>  <Target ID>  (1) 
65

>  <Target Name>  (1) 
Cytochrome P450 19A1

>  <Target Organism>  (1) 
Homo sapiens

>  <Target Description>  (1) 
Target is a single protein chain

>  <Sequence Accession>  (1) 
P11511

>  <Reference>  (1) 


>  <Pubmed ID>  (1) 
26469743

>  <DOI>  (1) 
10.1016/j.ejmech.2015.09.038

$$$$
