4wnv_ligand_311
     RDKit          2D

 22 25  0  0  0  0  0  0  0  0999 V2000
    0.0000   -0.0000   -0.0000 F   0  0  0  0  0  0  0  0  0  0  0  0
   -0.0408    1.2645   -0.0000 C   0  0  0  0  0  0  0  0  0  0  0  0
   -1.3664    2.0394   -0.0000 C   0  0  0  0  0  0  0  0  0  0  0  0
    1.2237    2.0598   -0.0000 C   0  0  0  0  0  0  0  0  0  0  0  0
   -2.6717    1.2848   -0.0000 C   0  0  0  0  0  0  0  0  0  0  0  0
   -1.3868    3.5486   -0.0000 C   0  0  0  0  0  0  0  0  0  0  0  0
    1.1829    3.5690   -0.0000 C   0  0  0  0  0  0  0  0  0  0  0  0
   -3.9769    2.0598   -0.0000 C   0  0  0  0  0  0  0  0  0  0  0  0
   -0.1224    4.3032   -0.0000 C   0  0  0  0  0  0  0  0  0  0  0  0
   -2.7125    4.2828   -0.0000 C   0  0  0  0  0  0  0  0  0  0  0  0
   -1.4276    4.8131   -0.0000 C   0  0  0  0  0  0  0  0  0  0  0  0
    2.4473    4.3236   -0.0000 C   0  0  0  0  0  0  0  0  0  0  0  0
   -5.0782    1.4684   -0.0000 O   0  0  0  0  0  0  0  0  0  0  0  0
   -3.9973    3.5690   -0.0000 C   0  0  0  0  0  0  0  0  0  0  0  0
   -0.1632    5.8328   -0.0000 C   0  0  0  0  0  0  0  0  0  0  0  0
    2.4269    5.8328   -0.0000 C   0  0  0  0  0  0  0  0  0  0  0  0
    5.0170    4.3236   -0.0000 C   0  0  0  0  0  0  0  0  0  0  0  0
    1.1013    6.6078   -0.0000 C   0  0  0  0  0  0  0  0  0  0  0  0
    3.6914    6.6282   -0.0000 C   0  0  0  0  0  0  0  0  0  0  0  0
    2.4065    7.0973   -0.0000 C   0  0  0  0  0  0  0  0  0  0  0  0
    4.9966    5.8736   -0.0000 C   0  0  0  0  0  0  0  0  0  0  0  0
    3.6710    7.8926   -0.0000 O   0  0  0  0  0  0  0  0  0  0  0  0
  2  1  1  1
  2  3  1  0
  2  4  1  0
  3  5  2  0
  3  6  1  0
  7  4  1  1
  5  8  1  0
  6  9  1  0
  6 10  1  0
  6 11  1  6
  7 12  1  0
  8 13  2  0
  8 14  1  0
  9 15  1  6
 12 16  1  0
 12 17  1  6
 15 18  1  0
 16 19  1  0
 16 20  1  6
 17 21  1  0
 19 22  2  0
  7  9  1  0
 10 14  1  0
 16 18  1  0
 19 21  1  0
M  END
>  <MolRegNo>  (1) 
2057957

>  <m>  (1) 
=

>  <Value>  (1) 
55

>  <Unit>  (1) 
nM

>  <Type>  (1) 
Ki

>  <pValue>  (1) 
7.26

>  <Ligand Efficiency>  (1) 
0.45

>  <Binding Efficiency>  (1) 
23.85

>  <Surface Efficiency>  (1) 
21.26

>  <Assay Index>  (1) 
985534

>  <Assay Category>  (1) 


>  <Assay Organism>  (1) 
Homo sapiens

>  <Target ID>  (1) 
65

>  <Target Name>  (1) 
Cytochrome P450 19A1

>  <Target Organism>  (1) 
Homo sapiens

>  <Target Description>  (1) 
Target is a single protein chain

>  <Sequence Accession>  (1) 
P11511

>  <Reference>  (1) 


>  <Pubmed ID>  (1) 
26469743

>  <DOI>  (1) 
10.1016/j.ejmech.2015.09.038

$$$$
