4wnv_ligand_282
     RDKit          2D

 25 28  0  0  0  0  0  0  0  0999 V2000
    0.0000   -0.0000   -0.0000 S   0  0  0  0  0  0  0  0  0  0  0  0
   -0.0206    1.5837   -0.0000 C   0  0  0  0  0  0  0  0  0  0  0  0
   -1.3780   -0.7610   -0.0000 C   0  0  0  0  0  0  0  0  0  0  0  0
   -1.3369    2.3652   -0.0000 C   0  0  0  0  0  0  0  0  0  0  0  0
    1.2546    2.3858   -0.0000 C   0  0  0  0  0  0  0  0  0  0  0  0
   -1.3986   -1.9950   -0.0000 O   0  0  0  0  0  0  0  0  0  0  0  0
   -2.4681   -0.1234   -0.0000 C   0  0  0  0  0  0  0  0  0  0  0  0
   -2.4475    1.7688   -0.0000 O   0  0  0  0  0  0  0  0  0  0  0  0
   -1.3574    3.8872   -0.0000 C   0  0  0  0  0  0  0  0  0  0  0  0
    1.2340    3.9078   -0.0000 C   0  0  0  0  0  0  0  0  0  0  0  0
    2.5504    1.6454   -0.0000 C   0  0  0  0  0  0  0  0  0  0  0  0
   -0.1028    4.6482   -0.0000 C   0  0  0  0  0  0  0  0  0  0  0  0
    2.5092    4.6688   -0.0000 C   0  0  0  0  0  0  0  0  0  0  0  0
    1.1929    5.1830   -0.0000 C   0  0  0  0  0  0  0  0  0  0  0  0
    3.8255    2.4475   -0.0000 C   0  0  0  0  0  0  0  0  0  0  0  0
    3.7844    3.9695   -0.0000 C   0  0  0  0  0  0  0  0  0  0  0  0
    2.4681    6.2113   -0.0000 C   0  0  0  0  0  0  0  0  0  0  0  0
    5.0596    4.7305   -0.0000 C   0  0  0  0  0  0  0  0  0  0  0  0
    3.7433    6.9929   -0.0000 C   0  0  0  0  0  0  0  0  0  0  0  0
    5.0390    6.2525   -0.0000 C   0  0  0  0  0  0  0  0  0  0  0  0
    7.6511    4.7305   -0.0000 C   0  0  0  0  0  0  0  0  0  0  0  0
    6.3142    7.0546   -0.0000 C   0  0  0  0  0  0  0  0  0  0  0  0
    5.0184    7.5277   -0.0000 C   0  0  0  0  0  0  0  0  0  0  0  0
    7.6305    6.2936   -0.0000 C   0  0  0  0  0  0  0  0  0  0  0  0
    6.2936    8.3298   -0.0000 O   0  0  0  0  0  0  0  0  0  0  0  0
  1  2  1  0
  1  3  1  0
  2  4  1  0
  2  5  2  0
  3  6  2  0
  3  7  1  0
  4  8  2  0
  4  9  1  0
  5 10  1  0
  5 11  1  0
  9 12  1  0
 10 13  1  0
 10 14  1  6
 11 15  1  0
 13 16  1  0
 13 17  1  6
 16 18  1  0
 17 19  1  0
 18 20  1  0
 18 21  1  6
 20 22  1  0
 20 23  1  6
 21 24  1  0
 22 25  2  0
 10 12  1  0
 16 15  1  1
 19 20  1  0
 22 24  1  0
M  END
>  <MolRegNo>  (1) 
2057820

>  <m>  (1) 
=

>  <Value>  (1) 
36

>  <Unit>  (1) 
nM

>  <Type>  (1) 
Ki

>  <pValue>  (1) 
7.44

>  <Ligand Efficiency>  (1) 
0.41

>  <Binding Efficiency>  (1) 
20.65

>  <Surface Efficiency>  (1) 
14.54

>  <Assay Index>  (1) 
985527

>  <Assay Category>  (1) 


>  <Assay Organism>  (1) 
Homo sapiens

>  <Target ID>  (1) 
65

>  <Target Name>  (1) 
Cytochrome P450 19A1

>  <Target Organism>  (1) 
Homo sapiens

>  <Target Description>  (1) 
Target is a single protein chain

>  <Sequence Accession>  (1) 
P11511

>  <Reference>  (1) 


>  <Pubmed ID>  (1) 
26469743

>  <DOI>  (1) 
10.1016/j.ejmech.2015.09.038

$$$$
