4wnv_ligand_256
     RDKit          2D

 32 36  0  0  0  0  0  0  0  0999 V2000
    0.0000   -0.0000   -0.0000 S   0  0  0  0  0  0  0  0  0  0  0  0
   -0.0204   -1.2239   -0.0000 O   0  0  0  0  0  0  0  0  0  0  0  0
   -1.0811    0.6323   -0.0000 O   0  0  0  0  0  0  0  0  0  0  0  0
    1.3259    0.7955   -0.0000 O   0  0  0  0  0  0  0  0  0  0  0  0
   -1.0811   -0.5915   -0.0000 N   0  0  0  0  0  0  0  0  0  0  0  0
    1.3055    2.3662   -0.0000 C   0  0  0  0  0  0  0  0  0  0  0  0
   -0.0408    3.1617   -0.0000 C   0  0  0  0  0  0  0  0  0  0  0  0
    2.6314    3.1617   -0.0000 C   0  0  0  0  0  0  0  0  0  0  0  0
   -0.0612    4.7324   -0.0000 C   0  0  0  0  0  0  0  0  0  0  0  0
    2.6110    4.7324   -0.0000 C   0  0  0  0  0  0  0  0  0  0  0  0
    1.2647    5.5279   -0.0000 C   0  0  0  0  0  0  0  0  0  0  0  0
    1.2239    7.0985   -0.0000 C   0  0  0  0  0  0  0  0  0  0  0  0
   -0.1020    7.8737   -0.0000 C   0  0  0  0  0  0  0  0  0  0  0  0
    2.4886    7.8941   -0.0000 C   0  0  0  0  0  0  0  0  0  0  0  0
   -1.4075    7.1189   -0.0000 C   0  0  0  0  0  0  0  0  0  0  0  0
   -0.1224    9.3831   -0.0000 C   0  0  0  0  0  0  0  0  0  0  0  0
    2.4478    9.4035   -0.0000 C   0  0  0  0  0  0  0  0  0  0  0  0
   -2.7129    7.8941   -0.0000 C   0  0  0  0  0  0  0  0  0  0  0  0
    1.1423   10.1378   -0.0000 C   0  0  0  0  0  0  0  0  0  0  0  0
   -1.4483   10.1175   -0.0000 C   0  0  0  0  0  0  0  0  0  0  0  0
   -0.1632   10.6478   -0.0000 C   0  0  0  0  0  0  0  0  0  0  0  0
    3.7125   10.1582   -0.0000 C   0  0  0  0  0  0  0  0  0  0  0  0
   -3.8144    7.3025   -0.0000 O   0  0  0  0  0  0  0  0  0  0  0  0
   -2.7333    9.4035   -0.0000 C   0  0  0  0  0  0  0  0  0  0  0  0
    1.1015   11.6677   -0.0000 C   0  0  0  0  0  0  0  0  0  0  0  0
    3.6921   11.6677   -0.0000 C   0  0  0  0  0  0  0  0  0  0  0  0
    6.2826   10.1582   -0.0000 C   0  0  0  0  0  0  0  0  0  0  0  0
    2.3662   12.4428   -0.0000 C   0  0  0  0  0  0  0  0  0  0  0  0
    4.9567   12.4632   -0.0000 C   0  0  0  0  0  0  0  0  0  0  0  0
    3.6717   12.9324   -0.0000 C   0  0  0  0  0  0  0  0  0  0  0  0
    6.2622   11.7085   -0.0000 C   0  0  0  0  0  0  0  0  0  0  0  0
    4.9363   13.7279   -0.0000 O   0  0  0  0  0  0  0  0  0  0  0  0
  1  2  2  0
  1  3  2  0
  1  4  1  0
  1  5  1  0
  4  6  1  0
  6  7  2  0
  6  8  1  0
  7  9  1  0
  8 10  2  0
  9 11  2  0
 11 12  1  0
 12 13  1  0
 12 14  2  0
 13 15  2  0
 13 16  1  0
 17 14  1  1
 15 18  1  0
 16 19  1  0
 16 20  1  0
 16 21  1  6
 17 22  1  0
 18 23  2  0
 18 24  1  0
 19 25  1  6
 22 26  1  0
 22 27  1  6
 25 28  1  0
 26 29  1  0
 26 30  1  6
 27 31  1  0
 29 32  2  0
 10 11  1  0
 17 19  1  0
 20 24  1  0
 26 28  1  0
 29 31  1  0
M  END
>  <MolRegNo>  (1) 
2057952

>  <m>  (1) 
=

>  <Value>  (1) 
30

>  <Unit>  (1) 
nM

>  <Type>  (1) 
Ki

>  <pValue>  (1) 
7.52

>  <Ligand Efficiency>  (1) 
0.32

>  <Binding Efficiency>  (1) 
16.51

>  <Surface Efficiency>  (1) 
7.27

>  <Assay Index>  (1) 
985353

>  <Assay Category>  (1) 


>  <Assay Organism>  (1) 
Homo sapiens

>  <Target ID>  (1) 
65

>  <Target Name>  (1) 
Cytochrome P450 19A1

>  <Target Organism>  (1) 
Homo sapiens

>  <Target Description>  (1) 
Target is a single protein chain

>  <Sequence Accession>  (1) 
P11511

>  <Reference>  (1) 


>  <Pubmed ID>  (1) 
26469743

>  <DOI>  (1) 
10.1016/j.ejmech.2015.09.038

$$$$
