4wnv_ligand_116
     RDKit          2D

 27 31  0  0  0  0  0  0  0  0999 V2000
    0.0000   -0.0000   -0.0000 O   0  0  0  0  0  0  0  0  0  0  0  0
    1.2559    0.7774   -0.0000 C   0  0  0  0  0  0  0  0  0  0  0  0
    2.4918    0.0598   -0.0000 C   0  0  0  0  0  0  0  0  0  0  0  0
    1.2359    2.2526   -0.0000 C   0  0  0  0  0  0  0  0  0  0  0  0
    3.7477    0.8173   -0.0000 C   0  0  0  0  0  0  0  0  0  0  0  0
    2.4719    3.0300   -0.0000 C   0  0  0  0  0  0  0  0  0  0  0  0
    5.0035    0.0797   -0.0000 C   0  0  0  0  0  0  0  0  0  0  0  0
    3.7277    2.2925   -0.0000 C   0  0  0  0  0  0  0  0  0  0  0  0
    6.2594    0.8173   -0.0000 C   0  0  0  0  0  0  0  0  0  0  0  0
    4.9836    3.0500   -0.0000 C   0  0  0  0  0  0  0  0  0  0  0  0
    3.7078    3.7875   -0.0000 C   0  0  0  0  0  0  0  0  0  0  0  0
    7.5153    0.0997   -0.0000 C   0  0  0  0  0  0  0  0  0  0  0  0
    6.2395    2.3124   -0.0000 C   0  0  0  0  0  0  0  0  0  0  0  0
    4.9836    4.5451   -0.0000 C   0  0  0  0  0  0  0  0  0  0  0  0
    8.7712    0.8572   -0.0000 C   0  0  0  0  0  0  0  0  0  0  0  0
    7.4954   -1.3555   -0.0000 C   0  0  0  0  0  0  0  0  0  0  0  0
    7.4954    3.0500   -0.0000 C   0  0  0  0  0  0  0  0  0  0  0  0
    6.2594    5.2826   -0.0000 C   0  0  0  0  0  0  0  0  0  0  0  0
   10.0270    0.1395   -0.0000 C   0  0  0  0  0  0  0  0  0  0  0  0
    8.7512   -2.0732   -0.0000 C   0  0  0  0  0  0  0  0  0  0  0  0
    7.4954    4.5251   -0.0000 C   0  0  0  0  0  0  0  0  0  0  0  0
   10.0071    3.0300   -0.0000 C   0  0  0  0  0  0  0  0  0  0  0  0
   10.0071   -1.3157   -0.0000 C   0  0  0  0  0  0  0  0  0  0  0  0
    8.7512    5.2627   -0.0000 C   0  0  0  0  0  0  0  0  0  0  0  0
    7.4754    6.0202   -0.0000 C   0  0  0  0  0  0  0  0  0  0  0  0
   10.0071    4.5052   -0.0000 C   0  0  0  0  0  0  0  0  0  0  0  0
    8.7512    6.7578   -0.0000 O   0  0  0  0  0  0  0  0  0  0  0  0
  1  2  2  0
  2  3  1  0
  2  4  1  0
  3  5  2  0
  4  6  1  0
  5  7  1  0
  5  8  1  0
  7  9  2  0
  8 10  1  0
  8 11  1  0
  9 12  1  0
  9 13  1  0
 10 14  1  0
 12 15  2  0
 12 16  1  0
 13 17  1  0
 14 18  1  0
 15 19  1  0
 16 20  2  0
 17 21  1  0
 17 22  1  0
 19 23  2  0
 21 24  1  0
 21 25  1  0
 22 26  1  0
 24 27  2  0
  6  8  1  0
 10 13  1  0
 18 21  1  0
 20 23  1  0
 24 26  1  0
M  END
>  <MolRegNo>  (1) 
5396

>  <m>  (1) 
=

>  <Value>  (1) 
1424

>  <Unit>  (1) 
nM

>  <Type>  (1) 
Ki

>  <pValue>  (1) 
5.85

>  <Ligand Efficiency>  (1) 
0.3

>  <Binding Efficiency>  (1) 
16.22

>  <Surface Efficiency>  (1) 
17.13

>  <Assay Index>  (1) 
50932

>  <Assay Category>  (1) 


>  <Assay Organism>  (1) 
Homo sapiens

>  <Target ID>  (1) 
65

>  <Target Name>  (1) 
Cytochrome P450 19A1

>  <Target Organism>  (1) 
Homo sapiens

>  <Target Description>  (1) 
Target is a single protein chain

>  <Sequence Accession>  (1) 
P11511

>  <Reference>  (1) 
J Med Chem 33 (1), 101-105 (1990)

>  <Pubmed ID>  (1) 
2296006

>  <DOI>  (1) 
10.1021/jm00163a017

$$$$
