4wnv_ligand_50
     RDKit          2D

 21 23  0  0  0  0  0  0  0  0999 V2000
    0.0000   -0.0000   -0.0000 Cl  0  0  0  0  0  0  0  0  0  0  0  0
    1.2764   -0.7396   -0.0000 C   0  0  0  0  0  0  0  0  0  0  0  0
    2.5646   -0.0000   -0.0000 C   0  0  0  0  0  0  0  0  0  0  0  0
    1.2644   -2.2426   -0.0000 C   0  0  0  0  0  0  0  0  0  0  0  0
    3.8529   -0.7396   -0.0000 C   0  0  0  0  0  0  0  0  0  0  0  0
    2.5408   -2.9702   -0.0000 C   0  0  0  0  0  0  0  0  0  0  0  0
    5.1412    0.0239   -0.0000 N   0  0  0  0  0  0  0  0  0  0  0  0
    3.8291   -2.2306   -0.0000 C   0  0  0  0  0  0  0  0  0  0  0  0
    6.4295   -0.7396   -0.0000 C   0  0  0  0  0  0  0  0  0  0  0  0
    5.1531    1.5269   -0.0000 C   0  0  0  0  0  0  0  0  0  0  0  0
    5.1293   -2.9702   -0.0000 S   0  0  0  0  0  0  0  0  0  0  0  0
    6.4176   -2.2306   -0.0000 C   0  0  0  0  0  0  0  0  0  0  0  0
    7.7416    0.0358   -0.0000 C   0  0  0  0  0  0  0  0  0  0  0  0
    3.8410    2.3141   -0.0000 C   0  0  0  0  0  0  0  0  0  0  0  0
    7.7058   -2.9941   -0.0000 C   0  0  0  0  0  0  0  0  0  0  0  0
    9.0299   -0.7276   -0.0000 C   0  0  0  0  0  0  0  0  0  0  0  0
    3.8291    3.8291   -0.0000 C   0  0  0  0  0  0  0  0  0  0  0  0
    8.9941   -2.2545   -0.0000 C   0  0  0  0  0  0  0  0  0  0  0  0
    2.5169    4.6163   -0.0000 N   0  0  0  0  0  0  0  0  0  0  0  0
    2.5169    6.1432   -0.0000 C   0  0  0  0  0  0  0  0  0  0  0  0
    1.2048    3.8887   -0.0000 C   0  0  0  0  0  0  0  0  0  0  0  0
  1  2  1  0
  2  3  2  0
  2  4  1  0
  3  5  1  0
  4  6  2  0
  5  7  1  0
  5  8  2  0
  7  9  1  0
  7 10  1  0
  8 11  1  0
  9 12  2  0
  9 13  1  0
 10 14  1  0
 12 15  1  0
 13 16  2  0
 14 17  1  0
 15 18  2  0
 17 19  1  0
 19 20  1  0
 19 21  1  0
  6  8  1  0
 11 12  1  0
 16 18  1  0
M  END
>  <MolRegNo>  (1) 
6216

>  <m>  (1) 
=

>  <Value>  (1) 
7000

>  <Unit>  (1) 
nM

>  <Type>  (1) 
Ki

>  <pValue>  (1) 
5.16

>  <Ligand Efficiency>  (1) 
0

>  <Binding Efficiency>  (1) 
0

>  <Surface Efficiency>  (1) 
0

>  <Assay Index>  (1) 
147623

>  <Assay Category>  (1) 


>  <Assay Organism>  (1) 
Homo sapiens

>  <Target ID>  (1) 
11365

>  <Target Name>  (1) 
Cytochrome P450 2D6

>  <Target Organism>  (1) 
Homo sapiens

>  <Target Description>  (1) 
Target is a single protein chain

>  <Sequence Accession>  (1) 
P10635

>  <Reference>  (1) 
J Med Chem 36 (9), 1136-1145 (1993)

>  <Pubmed ID>  (1) 
8487254

>  <DOI>  (1) 
10.1021/jm00061a004

$$$$
