4wnv_ligand_254
     RDKit          2D

 24 27  0  0  0  0  0  0  0  0999 V2000
    0.0000   -0.0000   -0.0000 Br  0  0  0  0  0  0  0  0  0  0  0  0
   -0.0413    1.2804   -0.0000 C   0  0  0  0  0  0  0  0  0  0  0  0
   -1.3836    2.0651   -0.0000 C   0  0  0  0  0  0  0  0  0  0  0  0
    1.2391    2.0858   -0.0000 C   0  0  0  0  0  0  0  0  0  0  0  0
   -2.7053    1.3010   -0.0000 C   0  0  0  0  0  0  0  0  0  0  0  0
   -1.4043    3.5933   -0.0000 C   0  0  0  0  0  0  0  0  0  0  0  0
    1.1978    3.6140   -0.0000 C   0  0  0  0  0  0  0  0  0  0  0  0
   -4.0270    2.0858   -0.0000 C   0  0  0  0  0  0  0  0  0  0  0  0
   -0.1239    4.3574   -0.0000 C   0  0  0  0  0  0  0  0  0  0  0  0
   -2.7466    4.3368   -0.0000 C   0  0  0  0  0  0  0  0  0  0  0  0
   -1.4456    4.8737   -0.0000 C   0  0  0  0  0  0  0  0  0  0  0  0
    2.4782    4.3781   -0.0000 C   0  0  0  0  0  0  0  0  0  0  0  0
   -5.1422    1.4869   -0.0000 O   0  0  0  0  0  0  0  0  0  0  0  0
   -4.0476    3.6140   -0.0000 C   0  0  0  0  0  0  0  0  0  0  0  0
   -0.1652    5.9063   -0.0000 C   0  0  0  0  0  0  0  0  0  0  0  0
    2.4575    5.9063   -0.0000 C   0  0  0  0  0  0  0  0  0  0  0  0
    5.0802    4.3781   -0.0000 C   0  0  0  0  0  0  0  0  0  0  0  0
   -4.0476    4.8737   -0.0000 C   0  0  0  0  0  0  0  0  0  0  0  0
   -5.1422    2.9738   -0.0000 C   0  0  0  0  0  0  0  0  0  0  0  0
    1.1152    6.6910   -0.0000 C   0  0  0  0  0  0  0  0  0  0  0  0
    3.7379    6.7117   -0.0000 C   0  0  0  0  0  0  0  0  0  0  0  0
    2.4368    7.1866   -0.0000 C   0  0  0  0  0  0  0  0  0  0  0  0
    5.0596    5.9476   -0.0000 C   0  0  0  0  0  0  0  0  0  0  0  0
    3.7172    7.9920   -0.0000 O   0  0  0  0  0  0  0  0  0  0  0  0
  2  1  1  6
  2  3  1  0
  2  4  1  0
  3  5  2  0
  3  6  1  0
  7  4  1  1
  5  8  1  0
  6  9  1  0
  6 10  1  0
  6 11  1  6
  7 12  1  0
  8 13  2  0
  8 14  1  0
  9 15  1  6
 12 16  1  0
 12 17  1  6
 14 18  1  0
 14 19  1  0
 15 20  1  0
 16 21  1  0
 16 22  1  6
 17 23  1  0
 21 24  2  0
  7  9  1  0
 10 14  1  0
 16 20  1  0
 21 23  1  0
M  END
>  <MolRegNo>  (1) 
2057950

>  <m>  (1) 
=

>  <Value>  (1) 
10

>  <Unit>  (1) 
nM

>  <Type>  (1) 
Ki

>  <pValue>  (1) 
8

>  <Ligand Efficiency>  (1) 
0.46

>  <Binding Efficiency>  (1) 
20.34

>  <Surface Efficiency>  (1) 
23.43

>  <Assay Index>  (1) 
985353

>  <Assay Category>  (1) 


>  <Assay Organism>  (1) 
Homo sapiens

>  <Target ID>  (1) 
65

>  <Target Name>  (1) 
Cytochrome P450 19A1

>  <Target Organism>  (1) 
Homo sapiens

>  <Target Description>  (1) 
Target is a single protein chain

>  <Sequence Accession>  (1) 
P11511

>  <Reference>  (1) 


>  <Pubmed ID>  (1) 
26469743

>  <DOI>  (1) 
10.1016/j.ejmech.2015.09.038

$$$$
