4wnv_ligand_70
     RDKit          2D

 22 25  0  0  0  0  0  0  0  0999 V2000
    0.0000   -0.0000   -0.0000 O   0  0  0  0  0  0  0  0  0  0  0  0
    1.3152   -0.7601   -0.0000 C   0  0  0  0  0  0  0  0  0  0  0  0
    1.3031   -2.2804   -0.0000 C   0  0  0  0  0  0  0  0  0  0  0  0
    2.6303    0.0241   -0.0000 C   0  0  0  0  0  0  0  0  0  0  0  0
   -0.0362   -3.0406   -0.0000 C   0  0  0  0  0  0  0  0  0  0  0  0
    2.6183   -3.0406   -0.0000 C   0  0  0  0  0  0  0  0  0  0  0  0
    3.9455   -0.7360   -0.0000 N   0  0  0  0  0  0  0  0  0  0  0  0
    2.6183    1.5686   -0.0000 C   0  0  0  0  0  0  0  0  0  0  0  0
   -0.0483   -4.5609   -0.0000 C   0  0  0  0  0  0  0  0  0  0  0  0
   -1.3755   -2.2684   -0.0000 C   0  0  0  0  0  0  0  0  0  0  0  0
    2.6062   -4.5609   -0.0000 C   0  0  0  0  0  0  0  0  0  0  0  0
    3.2819    0.5188   -0.0000 C   0  0  0  0  0  0  0  0  0  0  0  0
    5.2607    0.0483   -0.0000 C   0  0  0  0  0  0  0  0  0  0  0  0
    3.9334    2.3408   -0.0000 C   0  0  0  0  0  0  0  0  0  0  0  0
    1.2669   -5.3089   -0.0000 N   0  0  0  0  0  0  0  0  0  0  0  0
   -1.3876   -5.3089   -0.0000 C   0  0  0  0  0  0  0  0  0  0  0  0
   -2.7148   -3.0164   -0.0000 C   0  0  0  0  0  0  0  0  0  0  0  0
    4.3075    1.1945   -0.0000 C   0  0  0  0  0  0  0  0  0  0  0  0
    5.2486    1.5927   -0.0000 C   0  0  0  0  0  0  0  0  0  0  0  0
   -2.7269   -4.5367   -0.0000 C   0  0  0  0  0  0  0  0  0  0  0  0
    5.8278    0.8808   -0.0000 C   0  0  0  0  0  0  0  0  0  0  0  0
    6.5879   -0.4344   -0.0000 C   0  0  0  0  0  0  0  0  0  0  0  0
  2  1  1  1
  2  3  1  0
  2  4  1  0
  3  5  1  0
  3  6  2  0
  4  7  1  0
  4  8  1  6
  5  9  2  0
  5 10  1  0
  6 11  1  0
  7 12  1  0
  7 13  1  0
  8 14  1  0
  9 15  1  0
  9 16  1  0
 10 17  2  0
 12 18  1  0
 13 19  1  0
 16 20  2  0
 18 21  1  0
 21 22  2  0
 11 15  2  0
 14 18  1  0
 14 19  1  0
 17 20  1  0
M  END
>  <MolRegNo>  (1) 
1363843

>  <m>  (1) 
=

>  <Value>  (1) 
3500

>  <Unit>  (1) 
nM

>  <Type>  (1) 
Ki

>  <pValue>  (1) 
5.46

>  <Ligand Efficiency>  (1) 
0

>  <Binding Efficiency>  (1) 
0

>  <Surface Efficiency>  (1) 
0

>  <Assay Index>  (1) 
122806

>  <Assay Category>  (1) 


>  <Assay Organism>  (1) 
Homo sapiens

>  <Target ID>  (1) 
11365

>  <Target Name>  (1) 
Cytochrome P450 2D6

>  <Target Organism>  (1) 
Homo sapiens

>  <Target Description>  (1) 
Target is a single protein chain

>  <Sequence Accession>  (1) 
P10635

>  <Reference>  (1) 
J Med Chem 36 (9), 1136-1145 (1993)

>  <Pubmed ID>  (1) 
8487254

>  <DOI>  (1) 
10.1021/jm00061a004

$$$$
