4wnv_ligand_329
     RDKit          2D

 24 27  0  0  0  0  0  0  0  0999 V2000
    0.0000   -0.0000   -0.0000 O   0  0  0  0  0  0  0  0  0  0  0  0
    1.0837    0.6461   -0.0000 C   0  0  0  0  0  0  0  0  0  0  0  0
    2.3758   -0.1042   -0.0000 C   0  0  0  0  0  0  0  0  0  0  0  0
    1.0629    2.1883   -0.0000 C   0  0  0  0  0  0  0  0  0  0  0  0
    3.6680    0.7086   -0.0000 C   0  0  0  0  0  0  0  0  0  0  0  0
    2.3342    2.9594   -0.0000 C   0  0  0  0  0  0  0  0  0  0  0  0
    1.0629    3.4596   -0.0000 C   0  0  0  0  0  0  0  0  0  0  0  0
   -0.0417    1.5422   -0.0000 C   0  0  0  0  0  0  0  0  0  0  0  0
    4.9809   -0.0417   -0.0000 C   0  0  0  0  0  0  0  0  0  0  0  0
    3.6471    2.2508   -0.0000 C   0  0  0  0  0  0  0  0  0  0  0  0
    4.9809   -1.2921   -0.0000 O   0  0  0  0  0  0  0  0  0  0  0  0
    6.2731    0.7711   -0.0000 C   0  0  0  0  0  0  0  0  0  0  0  0
    4.9392    3.0219   -0.0000 C   0  0  0  0  0  0  0  0  0  0  0  0
    3.6054    3.5429   -0.0000 C   0  0  0  0  0  0  0  0  0  0  0  0
    6.2314    2.3133   -0.0000 C   0  0  0  0  0  0  0  0  0  0  0  0
    4.8976    4.5850   -0.0000 C   0  0  0  0  0  0  0  0  0  0  0  0
    7.5235    3.0844   -0.0000 C   0  0  0  0  0  0  0  0  0  0  0  0
    6.1897    5.3769   -0.0000 C   0  0  0  0  0  0  0  0  0  0  0  0
    7.5027    4.6266   -0.0000 C   0  0  0  0  0  0  0  0  0  0  0  0
   10.1494    3.0844   -0.0000 C   0  0  0  0  0  0  0  0  0  0  0  0
    8.7948    5.4394   -0.0000 C   0  0  0  0  0  0  0  0  0  0  0  0
    7.4818    5.9188   -0.0000 C   0  0  0  0  0  0  0  0  0  0  0  0
   10.1286    4.6683   -0.0000 C   0  0  0  0  0  0  0  0  0  0  0  0
    8.7739    6.7315   -0.0000 O   0  0  0  0  0  0  0  0  0  0  0  0
  1  2  2  0
  2  3  1  0
  2  4  1  0
  3  5  2  0
  4  6  1  0
  4  7  1  0
  4  8  1  0
  5  9  1  0
  5 10  1  0
  9 11  2  0
  9 12  1  0
 10 13  1  0
 10 14  1  6
 15 12  1  1
 13 16  1  6
 15 17  1  0
 16 18  1  0
 17 19  1  0
 17 20  1  6
 19 21  1  0
 19 22  1  6
 20 23  1  0
 21 24  2  0
  6 10  1  0
 13 15  1  0
 18 19  1  0
 21 23  1  0
M  END
>  <MolRegNo>  (1) 
2058233

>  <m>  (1) 
=

>  <Value>  (1) 
25

>  <Unit>  (1) 
nM

>  <Type>  (1) 
Ki

>  <pValue>  (1) 
7.6

>  <Ligand Efficiency>  (1) 
0.43

>  <Binding Efficiency>  (1) 
23.15

>  <Surface Efficiency>  (1) 
14.84

>  <Assay Index>  (1) 
985537

>  <Assay Category>  (1) 


>  <Assay Organism>  (1) 
Homo sapiens

>  <Target ID>  (1) 
65

>  <Target Name>  (1) 
Cytochrome P450 19A1

>  <Target Organism>  (1) 
Homo sapiens

>  <Target Description>  (1) 
Target is a single protein chain

>  <Sequence Accession>  (1) 
P11511

>  <Reference>  (1) 


>  <Pubmed ID>  (1) 
26469743

>  <DOI>  (1) 
10.1016/j.ejmech.2015.09.038

$$$$
