4wnv_ligand_173
     RDKit          2D

 27 29  0  0  0  0  0  0  0  0999 V2000
    0.0000   -0.0000   -0.0000 O   0  0  0  0  0  0  0  0  0  0  0  0
   -1.3153    0.7583   -0.0000 C   0  0  0  0  0  0  0  0  0  0  0  0
    1.2797    0.7702   -0.0000 C   0  0  0  0  0  0  0  0  0  0  0  0
   -2.6187    0.0237   -0.0000 C   0  0  0  0  0  0  0  0  0  0  0  0
   -1.3389    2.2750   -0.0000 C   0  0  0  0  0  0  0  0  0  0  0  0
    2.5713    0.0355   -0.0000 C   0  0  0  0  0  0  0  0  0  0  0  0
   -3.9221    0.7820   -0.0000 C   0  0  0  0  0  0  0  0  0  0  0  0
   -2.6424    3.0215   -0.0000 C   0  0  0  0  0  0  0  0  0  0  0  0
    3.8510    0.8057   -0.0000 N   0  0  0  0  0  0  0  0  0  0  0  0
   -3.9339    2.2869   -0.0000 C   0  0  0  0  0  0  0  0  0  0  0  0
   -5.2373    3.0452   -0.0000 C   0  0  0  0  0  0  0  0  0  0  0  0
   -6.5407    2.3106   -0.0000 C   0  0  0  0  0  0  0  0  0  0  0  0
   -5.2492    4.5501   -0.0000 C   0  0  0  0  0  0  0  0  0  0  0  0
   -6.5526    0.8176   -0.0000 C   0  0  0  0  0  0  0  0  0  0  0  0
   -7.8441    3.0689   -0.0000 C   0  0  0  0  0  0  0  0  0  0  0  0
   -6.5526    5.3084   -0.0000 C   0  0  0  0  0  0  0  0  0  0  0  0
   -3.9695    5.3084   -0.0000 C   0  0  0  0  0  0  0  0  0  0  0  0
   -7.8678    0.0829   -0.0000 C   0  0  0  0  0  0  0  0  0  0  0  0
   -9.1475    2.3343   -0.0000 C   0  0  0  0  0  0  0  0  0  0  0  0
   -6.5644    6.8132   -0.0000 C   0  0  0  0  0  0  0  0  0  0  0  0
   -7.8441    4.5738   -0.0000 C   0  0  0  0  0  0  0  0  0  0  0  0
   -2.6897    4.5738   -0.0000 C   0  0  0  0  0  0  0  0  0  0  0  0
   -9.1712    0.8413   -0.0000 C   0  0  0  0  0  0  0  0  0  0  0  0
   -7.8678    7.5716   -0.0000 C   0  0  0  0  0  0  0  0  0  0  0  0
   -9.1475    5.3203   -0.0000 C   0  0  0  0  0  0  0  0  0  0  0  0
  -10.4746    0.1066   -0.0000 O   0  0  0  0  0  0  0  0  0  0  0  0
   -9.1712    6.8369   -0.0000 C   0  0  0  0  0  0  0  0  0  0  0  0
  1  2  1  0
  1  3  1  0
  2  4  2  0
  2  5  1  0
  3  6  1  0
  4  7  1  0
  5  8  2  0
  6  9  1  0
  7 10  2  0
 10 11  1  0
 11 12  1  0
 11 13  2  0
 12 14  2  0
 12 15  1  0
 13 16  1  0
 13 17  1  0
 14 18  1  0
 15 19  2  0
 16 20  2  0
 16 21  1  0
 17 22  1  0
 18 23  2  0
 20 24  1  0
 21 25  2  0
 23 26  1  0
 24 27  2  0
  8 10  1  0
 19 23  1  0
 25 27  1  0
M  END
>  <MolRegNo>  (1) 
1563050

>  <m>  (1) 
=

>  <Value>  (1) 
48

>  <Unit>  (1) 
nM

>  <Type>  (1) 
Ki

>  <pValue>  (1) 
7.32

>  <Ligand Efficiency>  (1) 
0.37

>  <Binding Efficiency>  (1) 
20.36

>  <Surface Efficiency>  (1) 
13.19

>  <Assay Index>  (1) 
776520

>  <Assay Category>  (1) 


>  <Assay Organism>  (1) 
Homo sapiens

>  <Target ID>  (1) 
65

>  <Target Name>  (1) 
Cytochrome P450 19A1

>  <Target Organism>  (1) 
Homo sapiens

>  <Target Description>  (1) 
Target is a single protein chain

>  <Sequence Accession>  (1) 
P11511

>  <Reference>  (1) 
J Med Chem 56 (11), 4611-4618 (2013)

>  <Pubmed ID>  (1) 
23731360

>  <DOI>  (1) 
10.1021/jm400364h

$$$$
