4wnv_ligand_350
     RDKit          2D

 23 27  0  0  0  0  0  0  0  0999 V2000
    0.0000   -0.0000   -0.0000 S   0  0  0  0  0  0  0  0  0  0  0  0
    1.8395    1.5858   -0.0000 C   0  0  0  0  0  0  0  0  0  0  0  0
   -0.0211   -2.6642   -0.0000 C   0  0  0  0  0  0  0  0  0  0  0  0
    1.8184    0.5497   -0.0000 C   0  0  0  0  0  0  0  0  0  0  0  0
    0.5709   -1.5224   -0.0000 C   0  0  0  0  0  0  0  0  0  0  0  0
    1.7973   -0.8035   -0.0000 C   0  0  0  0  0  0  0  0  0  0  0  0
    3.0448    1.2898   -0.0000 C   0  0  0  0  0  0  0  0  0  0  0  0
    0.5497    1.2898   -0.0000 C   0  0  0  0  0  0  0  0  0  0  0  0
   -0.6978   -0.7823   -0.0000 C   0  0  0  0  0  0  0  0  0  0  0  0
    3.0236   -1.4801   -0.0000 C   0  0  0  0  0  0  0  0  0  0  0  0
    4.2077    0.6343   -0.0000 C   0  0  0  0  0  0  0  0  0  0  0  0
    3.0236    2.7487   -0.0000 C   0  0  0  0  0  0  0  0  0  0  0  0
   -0.7189    0.6343   -0.0000 C   0  0  0  0  0  0  0  0  0  0  0  0
   -1.7761   -1.3744   -0.0000 O   0  0  0  0  0  0  0  0  0  0  0  0
    4.1865   -0.7400   -0.0000 C   0  0  0  0  0  0  0  0  0  0  0  0
    5.4341    1.3321   -0.0000 C   0  0  0  0  0  0  0  0  0  0  0  0
    4.1865    3.4676   -0.0000 C   0  0  0  0  0  0  0  0  0  0  0  0
    5.4129    2.7910   -0.0000 C   0  0  0  0  0  0  0  0  0  0  0  0
    7.9079    1.3532   -0.0000 C   0  0  0  0  0  0  0  0  0  0  0  0
    6.6393    3.5099   -0.0000 C   0  0  0  0  0  0  0  0  0  0  0  0
    5.3918    4.0385   -0.0000 C   0  0  0  0  0  0  0  0  0  0  0  0
    7.8868    2.8122   -0.0000 C   0  0  0  0  0  0  0  0  0  0  0  0
    6.6181    4.7574   -0.0000 O   0  0  0  0  0  0  0  0  0  0  0  0
  1  2  1  0
  1  3  1  0
  4  2  1  1
  5  3  1  1
  4  6  1  0
  4  7  1  0
  4  8  1  0
  5  9  1  0
  6 10  2  0
  7 11  1  0
  7 12  1  1
  8 13  1  0
  9 14  2  0
 10 15  1  0
 11 16  1  0
 12 17  1  0
 16 18  1  0
 16 19  1  1
 18 20  1  0
 18 21  1  1
 19 22  1  0
 20 23  2  0
  5  6  1  0
  9 13  1  0
 11 15  1  6
 17 18  1  0
 20 22  1  0
M  END
>  <MolRegNo>  (1) 
2058225

>  <m>  (1) 
=

>  <Value>  (1) 
10000

>  <Unit>  (1) 
nM

>  <Type>  (1) 
Ki

>  <pValue>  (1) 
5

>  <Ligand Efficiency>  (1) 
0.3

>  <Binding Efficiency>  (1) 
15.13

>  <Surface Efficiency>  (1) 
14.65

>  <Assay Index>  (1) 
985549

>  <Assay Category>  (1) 


>  <Assay Organism>  (1) 
Homo sapiens

>  <Target ID>  (1) 
65

>  <Target Name>  (1) 
Cytochrome P450 19A1

>  <Target Organism>  (1) 
Homo sapiens

>  <Target Description>  (1) 
Target is a single protein chain

>  <Sequence Accession>  (1) 
P11511

>  <Reference>  (1) 


>  <Pubmed ID>  (1) 
26469743

>  <DOI>  (1) 
10.1016/j.ejmech.2015.09.038

$$$$
