4wnv_ligand_162
     RDKit          2D

 25 28  0  0  0  0  0  0  0  0999 V2000
    0.0000   -0.0000   -0.0000 F   0  0  0  0  0  0  0  0  0  0  0  0
   -1.4542   -0.3753   -0.0000 C   0  0  0  0  0  0  0  0  0  0  0  0
   -1.8530   -1.8060   -0.0000 C   0  0  0  0  0  0  0  0  0  0  0  0
   -2.5214    0.6919   -0.0000 C   0  0  0  0  0  0  0  0  0  0  0  0
   -3.3072   -2.1813   -0.0000 N   0  0  0  0  0  0  0  0  0  0  0  0
   -3.9756    0.3166   -0.0000 N   0  0  0  0  0  0  0  0  0  0  0  0
   -4.3744   -1.1141   -0.0000 C   0  0  0  0  0  0  0  0  0  0  0  0
   -5.8286   -1.4894   -0.0000 N   0  0  0  0  0  0  0  0  0  0  0  0
   -6.2273   -2.9202   -0.0000 C   0  0  0  0  0  0  0  0  0  0  0  0
   -6.8958   -0.4222   -0.0000 C   0  0  0  0  0  0  0  0  0  0  0  0
   -7.6816   -3.2955   -0.0000 C   0  0  0  0  0  0  0  0  0  0  0  0
   -8.3500   -0.7975   -0.0000 C   0  0  0  0  0  0  0  0  0  0  0  0
   -8.7488   -2.2282   -0.0000 N   0  0  0  0  0  0  0  0  0  0  0  0
  -10.2030   -2.6035   -0.0000 C   0  0  0  0  0  0  0  0  0  0  0  0
  -11.4227   -1.7122   -0.0000 C   0  0  0  0  0  0  0  0  0  0  0  0
  -12.8534   -2.1579   -0.0000 N   0  0  0  0  0  0  0  0  0  0  0  0
  -11.4344   -0.2111   -0.0000 C   0  0  0  0  0  0  0  0  0  0  0  0
  -13.7447   -0.9382   -0.0000 C   0  0  0  0  0  0  0  0  0  0  0  0
  -12.8652    0.2580   -0.0000 N   0  0  0  0  0  0  0  0  0  0  0  0
  -15.2459   -0.9265   -0.0000 C   0  0  0  0  0  0  0  0  0  0  0  0
  -16.0081    0.3753   -0.0000 C   0  0  0  0  0  0  0  0  0  0  0  0
  -16.0081   -2.2048   -0.0000 C   0  0  0  0  0  0  0  0  0  0  0  0
  -17.5093    0.3870   -0.0000 C   0  0  0  0  0  0  0  0  0  0  0  0
  -17.5093   -2.1931   -0.0000 C   0  0  0  0  0  0  0  0  0  0  0  0
  -18.2716   -0.8913   -0.0000 C   0  0  0  0  0  0  0  0  0  0  0  0
  1  2  1  0
  2  3  2  0
  2  4  1  0
  3  5  1  0
  4  6  2  0
  5  7  2  0
  7  8  1  0
  8  9  1  0
  8 10  1  0
  9 11  1  0
 10 12  1  0
 11 13  1  0
 13 14  1  0
 14 15  1  0
 15 16  2  0
 15 17  1  0
 16 18  1  0
 17 19  1  0
 18 20  1  0
 20 21  2  0
 20 22  1  0
 21 23  1  0
 22 24  2  0
 23 25  2  0
  6  7  1  0
 12 13  1  0
 18 19  2  0
 24 25  1  0
M  END
>  <MolRegNo>  (1) 
1122140

>  <m>  (1) 
=

>  <Value>  (1) 
4800

>  <Unit>  (1) 
nM

>  <Type>  (1) 
Ki

>  <pValue>  (1) 
5.32

>  <Ligand Efficiency>  (1) 
0

>  <Binding Efficiency>  (1) 
0

>  <Surface Efficiency>  (1) 
0

>  <Assay Index>  (1) 
581914

>  <Assay Category>  (1) 


>  <Assay Organism>  (1) 
Homo sapiens

>  <Target ID>  (1) 
11365

>  <Target Name>  (1) 
Cytochrome P450 2D6

>  <Target Organism>  (1) 
Homo sapiens

>  <Target Description>  (1) 
Target is a single protein chain

>  <Sequence Accession>  (1) 
P10635

>  <Reference>  (1) 
Curr Drug Metab 6 (1), 413-454 (2005)

>  <Pubmed ID>  (1) 
16248836

>  <DOI>  (1) 
10.2174/138920005774330639

$$$$
