4wnv_ligand_330
     RDKit          2D

 25 28  0  0  0  0  0  0  0  0999 V2000
    0.0000   -0.0000   -0.0000 O   0  0  0  0  0  0  0  0  0  0  0  0
    1.0902    0.6499   -0.0000 C   0  0  0  0  0  0  0  0  0  0  0  0
    2.3900   -0.1048   -0.0000 C   0  0  0  0  0  0  0  0  0  0  0  0
    1.0692    2.2013   -0.0000 C   0  0  0  0  0  0  0  0  0  0  0  0
    2.3691   -1.3627   -0.0000 O   0  0  0  0  0  0  0  0  0  0  0  0
    3.6899    0.7128   -0.0000 C   0  0  0  0  0  0  0  0  0  0  0  0
    2.3481    2.9771   -0.0000 C   0  0  0  0  0  0  0  0  0  0  0  0
    1.0692    3.4802   -0.0000 C   0  0  0  0  0  0  0  0  0  0  0  0
   -0.0419    1.5514   -0.0000 C   0  0  0  0  0  0  0  0  0  0  0  0
    5.0107   -0.0419   -0.0000 C   0  0  0  0  0  0  0  0  0  0  0  0
    3.6689    2.2642   -0.0000 C   0  0  0  0  0  0  0  0  0  0  0  0
    5.0107   -1.2998   -0.0000 O   0  0  0  0  0  0  0  0  0  0  0  0
    6.3105    0.7757   -0.0000 C   0  0  0  0  0  0  0  0  0  0  0  0
    4.9688    3.0400   -0.0000 C   0  0  0  0  0  0  0  0  0  0  0  0
    3.6270    3.5641   -0.0000 C   0  0  0  0  0  0  0  0  0  0  0  0
    6.2686    2.3271   -0.0000 C   0  0  0  0  0  0  0  0  0  0  0  0
    4.9268    4.6123   -0.0000 C   0  0  0  0  0  0  0  0  0  0  0  0
    7.5684    3.1028   -0.0000 C   0  0  0  0  0  0  0  0  0  0  0  0
    6.2267    5.4090   -0.0000 C   0  0  0  0  0  0  0  0  0  0  0  0
    7.5475    4.6543   -0.0000 C   0  0  0  0  0  0  0  0  0  0  0  0
   10.2101    3.1028   -0.0000 C   0  0  0  0  0  0  0  0  0  0  0  0
    8.8473    5.4719   -0.0000 C   0  0  0  0  0  0  0  0  0  0  0  0
    7.5265    5.9541   -0.0000 C   0  0  0  0  0  0  0  0  0  0  0  0
   10.1891    4.6962   -0.0000 C   0  0  0  0  0  0  0  0  0  0  0  0
    8.8263    6.7718   -0.0000 O   0  0  0  0  0  0  0  0  0  0  0  0
  1  2  2  0
  2  3  1  0
  2  4  1  0
  3  5  1  0
  3  6  2  0
  4  7  1  0
  4  8  1  0
  4  9  1  0
  6 10  1  0
  6 11  1  0
 10 12  2  0
 10 13  1  0
 11 14  1  0
 11 15  1  6
 16 13  1  1
 14 17  1  6
 16 18  1  0
 17 19  1  0
 18 20  1  0
 18 21  1  6
 20 22  1  0
 20 23  1  6
 21 24  1  0
 22 25  2  0
  7 11  1  0
 14 16  1  0
 19 20  1  0
 22 24  1  0
M  END
>  <MolRegNo>  (1) 
2058234

>  <m>  (1) 
=

>  <Value>  (1) 
40

>  <Unit>  (1) 
nM

>  <Type>  (1) 
Ki

>  <pValue>  (1) 
7.4

>  <Ligand Efficiency>  (1) 
0.4

>  <Binding Efficiency>  (1) 
21.48

>  <Surface Efficiency>  (1) 
10.36

>  <Assay Index>  (1) 
985537

>  <Assay Category>  (1) 


>  <Assay Organism>  (1) 
Homo sapiens

>  <Target ID>  (1) 
65

>  <Target Name>  (1) 
Cytochrome P450 19A1

>  <Target Organism>  (1) 
Homo sapiens

>  <Target Description>  (1) 
Target is a single protein chain

>  <Sequence Accession>  (1) 
P11511

>  <Reference>  (1) 


>  <Pubmed ID>  (1) 
26469743

>  <DOI>  (1) 
10.1016/j.ejmech.2015.09.038

$$$$
