4wnv_ligand_121
     RDKit          2D

 21 24  0  0  1  0  0  0  0  0999 V2000
    0.0000   -0.0000   -0.0000 O   0  0  0  0  0  0  0  0  0  0  0  0
    1.2976    0.7976   -0.0000 C   0  0  0  0  0  0  0  0  0  0  0  0
    2.5834    0.0595   -0.0000 C   0  0  0  0  0  0  0  0  0  0  0  0
    1.2857    2.3215   -0.0000 C   0  0  0  0  0  0  0  0  0  0  0  0
    3.8691    0.8214   -0.0000 C   0  0  0  0  0  0  0  0  0  0  0  0
    2.5715    3.0834   -0.0000 C   0  0  0  0  0  0  0  0  0  0  0  0
    3.8572    2.3453   -0.0000 C   0  0  0  0  0  0  0  0  0  0  0  0
    5.1430    0.0833   -0.0000 C   0  0  0  0  0  0  0  0  0  0  0  0
    5.1311    3.1072   -0.0000 C   0  0  0  0  0  0  0  0  0  0  0  0
    3.8453    3.8691   -0.0000 C   0  0  0  0  0  0  0  0  0  0  0  0
    6.4287    0.8453   -0.0000 C   0  0  0  0  0  0  0  0  0  0  0  0
    6.4168    2.3691   -0.0000 C   0  0  0  0  0  0  0  0  0  0  0  0
    5.1192    4.6192   -0.0000 C   0  0  0  0  0  0  0  0  0  0  0  0
    7.6906    3.1310   -0.0000 C   0  0  0  0  0  0  0  0  0  0  0  0
    6.4049    5.3811   -0.0000 C   0  0  0  0  0  0  0  0  0  0  0  0
    7.6787    4.6430   -0.0000 C   0  0  0  0  0  0  0  0  0  0  0  0
    9.1073    2.6786   -0.0000 C   0  0  0  0  0  0  0  0  0  0  0  0
    9.0954    5.1311   -0.0000 C   0  0  0  0  0  0  0  0  0  0  0  0
    8.0002    6.1311   -0.0000 C   0  0  0  0  0  0  0  0  0  0  0  0
    9.9526    3.9168   -0.0000 C   0  0  0  0  0  0  0  0  0  0  0  0
    9.5597    6.5835   -0.0000 O   0  0  0  0  0  0  0  0  0  0  0  0
  1  2  2  0
  2  3  1  0
  2  4  1  0
  5  3  1  1
  4  6  1  0
  5  7  1  0
  5  8  1  0
  7  9  1  0
  7 10  1  1
  8 11  1  0
  9 12  1  0
  9 13  1  1
 12 14  1  0
 13 15  1  0
 14 16  1  0
 14 17  1  1
 16 18  1  0
 16 19  1  1
 17 20  1  0
 18 21  1  1
  6  7  1  0
 12 11  1  6
 15 16  1  0
 18 20  1  0
M  END
>  <MolRegNo>  (1) 
34933

>  <m>  (1) 
=

>  <Value>  (1) 
1550

>  <Unit>  (1) 
nM

>  <Type>  (1) 
Ki

>  <pValue>  (1) 
5.81

>  <Ligand Efficiency>  (1) 
0.38

>  <Binding Efficiency>  (1) 
20

>  <Surface Efficiency>  (1) 
15.58

>  <Assay Index>  (1) 
50939

>  <Assay Category>  (1) 


>  <Assay Organism>  (1) 
Homo sapiens

>  <Target ID>  (1) 
65

>  <Target Name>  (1) 
Cytochrome P450 19A1

>  <Target Organism>  (1) 
Homo sapiens

>  <Target Description>  (1) 
Target is a single protein chain

>  <Sequence Accession>  (1) 
P11511

>  <Reference>  (1) 
J Med Chem 32 (3), 651-658 (1989)

>  <Pubmed ID>  (1) 
2918514

>  <DOI>  (1) 
10.1021/jm00123a026

$$$$
