4wnv_ligand_8
     RDKit          2D

 36 39  0  0  0  0  0  0  0  0999 V2000
    0.0000   -0.0000   -0.0000 O   0  0  0  0  0  0  0  0  0  0  0  0
    1.0167    0.5861   -0.0000 C   0  0  0  0  0  0  0  0  0  0  0  0
    2.3204   -0.1555   -0.0000 N   0  0  0  0  0  0  0  0  0  0  0  0
    1.0047    2.1051   -0.0000 C   0  0  0  0  0  0  0  0  0  0  0  0
    2.3084   -1.6506   -0.0000 C   0  0  0  0  0  0  0  0  0  0  0  0
   -0.3110    2.8706   -0.0000 C   0  0  0  0  0  0  0  0  0  0  0  0
    2.3084    2.8706   -0.0000 C   0  0  0  0  0  0  0  0  0  0  0  0
    0.9927   -2.3922   -0.0000 C   0  0  0  0  0  0  0  0  0  0  0  0
   -0.3229    4.4016   -0.0000 C   0  0  0  0  0  0  0  0  0  0  0  0
    2.2965    4.4016   -0.0000 C   0  0  0  0  0  0  0  0  0  0  0  0
    0.9808   -3.8873   -0.0000 N   0  0  0  0  0  0  0  0  0  0  0  0
   -0.4784   -1.9975   -0.0000 C   0  0  0  0  0  0  0  0  0  0  0  0
    0.9688    5.1551   -0.0000 C   0  0  0  0  0  0  0  0  0  0  0  0
   -0.3349   -4.6288   -0.0000 C   0  0  0  0  0  0  0  0  0  0  0  0
    2.2726   -4.6288   -0.0000 C   0  0  0  0  0  0  0  0  0  0  0  0
   -1.5669   -3.0500   -0.0000 C   0  0  0  0  0  0  0  0  0  0  0  0
   -0.8731   -0.5024   -0.0000 C   0  0  0  0  0  0  0  0  0  0  0  0
   -0.3469   -6.1359   -0.0000 C   0  0  0  0  0  0  0  0  0  0  0  0
    2.2606   -6.1359   -0.0000 C   0  0  0  0  0  0  0  0  0  0  0  0
   -3.0380   -2.6553   -0.0000 C   0  0  0  0  0  0  0  0  0  0  0  0
   -2.3563   -0.1076   -0.0000 C   0  0  0  0  0  0  0  0  0  0  0  0
    0.9449   -6.8775   -0.0000 N   0  0  0  0  0  0  0  0  0  0  0  0
   -3.4567   -1.1722   -0.0000 C   0  0  0  0  0  0  0  0  0  0  0  0
    0.9329   -8.3726   -0.0000 C   0  0  0  0  0  0  0  0  0  0  0  0
    2.2247   -9.1141   -0.0000 C   0  0  0  0  0  0  0  0  0  0  0  0
    3.5165   -8.3487   -0.0000 O   0  0  0  0  0  0  0  0  0  0  0  0
    2.2128  -10.6092   -0.0000 C   0  0  0  0  0  0  0  0  0  0  0  0
    3.5045  -11.3508   -0.0000 O   0  0  0  0  0  0  0  0  0  0  0  0
    3.4926  -12.8459   -0.0000 C   0  0  0  0  0  0  0  0  0  0  0  0
    4.7843  -13.5875   -0.0000 C   0  0  0  0  0  0  0  0  0  0  0  0
    2.1649  -13.5875   -0.0000 C   0  0  0  0  0  0  0  0  0  0  0  0
    4.7724  -15.0946   -0.0000 C   0  0  0  0  0  0  0  0  0  0  0  0
    2.1529  -15.0946   -0.0000 C   0  0  0  0  0  0  0  0  0  0  0  0
    3.4567  -15.8361   -0.0000 C   0  0  0  0  0  0  0  0  0  0  0  0
    3.4567  -17.3073   -0.0000 O   0  0  0  0  0  0  0  0  0  0  0  0
    4.7484  -18.0489   -0.0000 C   0  0  0  0  0  0  0  0  0  0  0  0
  1  2  2  0
  2  3  1  0
  2  4  1  0
  3  5  1  0
  4  6  2  0
  4  7  1  0
  5  8  1  0
  6  9  1  0
  7 10  2  0
  8 11  1  0
  8 12  1  0
  9 13  2  0
 11 14  1  0
 11 15  1  0
 12 16  2  0
 12 17  1  0
 14 18  1  0
 15 19  1  0
 16 20  1  0
 17 21  2  0
 18 22  1  0
 20 23  2  0
 22 24  1  0
 24 25  1  0
 25 26  1  0
 25 27  1  0
 27 28  1  0
 28 29  1  0
 29 30  2  0
 29 31  1  0
 30 32  1  0
 31 33  2  0
 32 34  2  0
 34 35  1  0
 35 36  1  0
 10 13  1  0
 19 22  1  0
 21 23  1  0
 33 34  1  0
M  END
>  <MolRegNo>  (1) 
97439

>  <m>  (1) 
=

>  <Value>  (1) 
4000

>  <Unit>  (1) 
nM

>  <Type>  (1) 
Ki

>  <pValue>  (1) 
5.4

>  <Ligand Efficiency>  (1) 
0

>  <Binding Efficiency>  (1) 
0

>  <Surface Efficiency>  (1) 
0

>  <Assay Index>  (1) 
51650

>  <Assay Category>  (1) 


>  <Assay Organism>  (1) 


>  <Target ID>  (1) 
11365

>  <Target Name>  (1) 
Cytochrome P450 2D6

>  <Target Organism>  (1) 
Homo sapiens

>  <Target Description>  (1) 
Target is a single protein chain

>  <Sequence Accession>  (1) 
P10635

>  <Reference>  (1) 
Bioorg Med Chem Lett 14 (9), 2025-2030 (2004)

>  <Pubmed ID>  (1) 
15080972

>  <DOI>  (1) 
10.1016/j.bmcl.2004.02.078

$$$$
