4wnv_ligand_266
     RDKit          2D

 23 27  0  0  0  0  0  0  0  0999 V2000
    0.0000   -0.0000   -0.0000 O   0  0  0  0  0  0  0  0  0  0  0  0
   -1.0962    0.6205   -0.0000 C   0  0  0  0  0  0  0  0  0  0  0  0
   -1.1169    2.3992   -0.0000 C   0  0  0  0  0  0  0  0  0  0  0  0
   -2.3579   -0.1034   -0.0000 C   0  0  0  0  0  0  0  0  0  0  0  0
   -2.3786    2.9163   -0.0000 C   0  0  0  0  0  0  0  0  0  0  0  0
    0.1448    2.9163   -0.0000 C   0  0  0  0  0  0  0  0  0  0  0  0
   -3.6816   -0.8273   -0.0000 O   0  0  0  0  0  0  0  0  0  0  0  0
   -3.6816    0.6619   -0.0000 C   0  0  0  0  0  0  0  0  0  0  0  0
   -3.7023    2.4406   -0.0000 C   0  0  0  0  0  0  0  0  0  0  0  0
   -2.3992    4.4055   -0.0000 C   0  0  0  0  0  0  0  0  0  0  0  0
    0.1241    4.4055   -0.0000 C   0  0  0  0  0  0  0  0  0  0  0  0
    2.7509    2.9370   -0.0000 C   0  0  0  0  0  0  0  0  0  0  0  0
   -4.9846   -0.0620   -0.0000 C   0  0  0  0  0  0  0  0  0  0  0  0
   -5.0053    2.9577   -0.0000 C   0  0  0  0  0  0  0  0  0  0  0  0
   -3.7230    3.7023   -0.0000 C   0  0  0  0  0  0  0  0  0  0  0  0
   -1.1789    5.1294   -0.0000 C   0  0  0  0  0  0  0  0  0  0  0  0
    1.4478    5.1294   -0.0000 C   0  0  0  0  0  0  0  0  0  0  0  0
    0.1241    5.6672   -0.0000 C   0  0  0  0  0  0  0  0  0  0  0  0
    2.7302    4.4262   -0.0000 C   0  0  0  0  0  0  0  0  0  0  0  0
   -5.0053   -1.2824   -0.0000 O   0  0  0  0  0  0  0  0  0  0  0  0
   -6.3083    0.7032   -0.0000 C   0  0  0  0  0  0  0  0  0  0  0  0
   -6.3290    2.4820   -0.0000 C   0  0  0  0  0  0  0  0  0  0  0  0
    1.4478    6.3911   -0.0000 O   0  0  0  0  0  0  0  0  0  0  0  0
  1  2  2  0
  3  2  1  1
  2  4  1  0
  3  5  1  0
  3  6  1  0
  4  7  1  6
  4  8  1  0
  5  9  1  0
  5 10  1  6
  6 11  1  0
  6 12  1  6
  8 13  1  0
  9 14  1  0
  9 15  1  6
 10 16  1  0
 11 17  1  0
 11 18  1  6
 12 19  1  0
 13 20  2  0
 13 21  1  0
 14 22  1  0
 17 23  2  0
  8  7  1  6
  8  9  1  0
 11 16  1  0
 17 19  1  0
 21 22  1  0
M  END
>  <MolRegNo>  (1) 
2058240

>  <m>  (1) 
=

>  <Value>  (1) 
5000

>  <Unit>  (1) 
nM

>  <Type>  (1) 
Ki

>  <pValue>  (1) 
5.3

>  <Ligand Efficiency>  (1) 
0.31

>  <Binding Efficiency>  (1) 
16.75

>  <Surface Efficiency>  (1) 
8.32

>  <Assay Index>  (1) 
985353

>  <Assay Category>  (1) 


>  <Assay Organism>  (1) 
Homo sapiens

>  <Target ID>  (1) 
65

>  <Target Name>  (1) 
Cytochrome P450 19A1

>  <Target Organism>  (1) 
Homo sapiens

>  <Target Description>  (1) 
Target is a single protein chain

>  <Sequence Accession>  (1) 
P11511

>  <Reference>  (1) 


>  <Pubmed ID>  (1) 
26469743

>  <DOI>  (1) 
10.1016/j.ejmech.2015.09.038

$$$$
