4wnv_ligand_21
     RDKit          2D

 35 38  0  0  0  0  0  0  0  0999 V2000
    0.0000   -0.0000   -0.0000 F   0  0  0  0  0  0  0  0  0  0  0  0
    1.2889   -0.7469   -0.0000 C   0  0  0  0  0  0  0  0  0  0  0  0
    2.6020    0.0241   -0.0000 C   0  0  0  0  0  0  0  0  0  0  0  0
    1.2769   -2.2406   -0.0000 C   0  0  0  0  0  0  0  0  0  0  0  0
    3.8909   -0.7228   -0.0000 C   0  0  0  0  0  0  0  0  0  0  0  0
    2.5779   -2.9874   -0.0000 C   0  0  0  0  0  0  0  0  0  0  0  0
    3.8789   -2.2165   -0.0000 C   0  0  0  0  0  0  0  0  0  0  0  0
    5.1678   -2.9633   -0.0000 N   0  0  0  0  0  0  0  0  0  0  0  0
    6.4567   -2.1924   -0.0000 C   0  0  0  0  0  0  0  0  0  0  0  0
    5.1557   -4.4571   -0.0000 C   0  0  0  0  0  0  0  0  0  0  0  0
    6.4447   -0.6746   -0.0000 O   0  0  0  0  0  0  0  0  0  0  0  0
    7.7577   -2.9393   -0.0000 C   0  0  0  0  0  0  0  0  0  0  0  0
    6.4567   -5.2039   -0.0000 C   0  0  0  0  0  0  0  0  0  0  0  0
    3.8427   -5.2039   -0.0000 C   0  0  0  0  0  0  0  0  0  0  0  0
    9.0587   -2.1683   -0.0000 C   0  0  0  0  0  0  0  0  0  0  0  0
    7.7457   -4.4450   -0.0000 C   0  0  0  0  0  0  0  0  0  0  0  0
    6.4447   -6.7097   -0.0000 C   0  0  0  0  0  0  0  0  0  0  0  0
    3.8307   -6.7097   -0.0000 C   0  0  0  0  0  0  0  0  0  0  0  0
   10.3476   -2.9152   -0.0000 C   0  0  0  0  0  0  0  0  0  0  0  0
    9.0346   -5.1919   -0.0000 C   0  0  0  0  0  0  0  0  0  0  0  0
    5.1196   -7.4566   -0.0000 N   0  0  0  0  0  0  0  0  0  0  0  0
   10.3356   -4.4209   -0.0000 C   0  0  0  0  0  0  0  0  0  0  0  0
    5.1076   -8.9503   -0.0000 C   0  0  0  0  0  0  0  0  0  0  0  0
    6.3965   -9.6730   -0.0000 C   0  0  0  0  0  0  0  0  0  0  0  0
    7.6854   -8.9262   -0.0000 O   0  0  0  0  0  0  0  0  0  0  0  0
    6.3844  -11.1909   -0.0000 C   0  0  0  0  0  0  0  0  0  0  0  0
    7.6734  -11.9377   -0.0000 O   0  0  0  0  0  0  0  0  0  0  0  0
    7.6613  -13.4314   -0.0000 C   0  0  0  0  0  0  0  0  0  0  0  0
    6.3483  -14.1783   -0.0000 C   0  0  0  0  0  0  0  0  0  0  0  0
    8.9503  -14.1783   -0.0000 C   0  0  0  0  0  0  0  0  0  0  0  0
    6.3363  -15.6841   -0.0000 C   0  0  0  0  0  0  0  0  0  0  0  0
    8.9382  -15.6841   -0.0000 C   0  0  0  0  0  0  0  0  0  0  0  0
    7.6252  -16.4309   -0.0000 C   0  0  0  0  0  0  0  0  0  0  0  0
    7.6372  -17.9246   -0.0000 O   0  0  0  0  0  0  0  0  0  0  0  0
    8.9262  -18.6474   -0.0000 C   0  0  0  0  0  0  0  0  0  0  0  0
  1  2  1  0
  2  3  2  0
  2  4  1  0
  3  5  1  0
  4  6  2  0
  5  7  2  0
  7  8  1  0
  8  9  1  0
  8 10  1  0
  9 11  2  0
  9 12  1  0
 10 13  1  0
 10 14  1  0
 12 15  2  0
 12 16  1  0
 13 17  1  0
 14 18  1  0
 15 19  1  0
 16 20  2  0
 17 21  1  0
 19 22  2  0
 21 23  1  0
 23 24  1  0
 24 25  1  0
 24 26  1  0
 26 27  1  0
 27 28  1  0
 28 29  2  0
 28 30  1  0
 29 31  1  0
 30 32  2  0
 31 33  2  0
 33 34  1  0
 34 35  1  0
  6  7  1  0
 18 21  1  0
 20 22  1  0
 32 33  1  0
M  END
>  <MolRegNo>  (1) 
96492

>  <m>  (1) 
=

>  <Value>  (1) 
1000

>  <Unit>  (1) 
nM

>  <Type>  (1) 
Ki

>  <pValue>  (1) 
6

>  <Ligand Efficiency>  (1) 
0

>  <Binding Efficiency>  (1) 
0

>  <Surface Efficiency>  (1) 
0

>  <Assay Index>  (1) 
51650

>  <Assay Category>  (1) 


>  <Assay Organism>  (1) 


>  <Target ID>  (1) 
11365

>  <Target Name>  (1) 
Cytochrome P450 2D6

>  <Target Organism>  (1) 
Homo sapiens

>  <Target Description>  (1) 
Target is a single protein chain

>  <Sequence Accession>  (1) 
P10635

>  <Reference>  (1) 
Bioorg Med Chem Lett 14 (9), 2025-2030 (2004)

>  <Pubmed ID>  (1) 
15080972

>  <DOI>  (1) 
10.1016/j.bmcl.2004.02.078

$$$$
