4wnv_ligand_76
     RDKit          2D

 14 16  0  0  0  0  0  0  0  0999 V2000
    0.0000   -0.0000   -0.0000 N   0  0  0  0  0  0  0  0  0  0  0  0
   -0.6193   -1.3438   -0.0000 C   0  0  0  0  0  0  0  0  0  0  0  0
   -0.8998    1.2153   -0.0000 C   0  0  0  0  0  0  0  0  0  0  0  0
   -2.1034   -1.4841   -0.0000 C   0  0  0  0  0  0  0  0  0  0  0  0
    0.2571   -2.5474   -0.0000 C   0  0  0  0  0  0  0  0  0  0  0  0
   -2.3955    1.0751   -0.0000 C   0  0  0  0  0  0  0  0  0  0  0  0
   -2.9798   -2.6877   -0.0000 N   0  0  0  0  0  0  0  0  0  0  0  0
   -2.9915   -0.2688   -0.0000 C   0  0  0  0  0  0  0  0  0  0  0  0
   -4.4171   -2.2202   -0.0000 C   0  0  0  0  0  0  0  0  0  0  0  0
   -4.4288   -0.7245   -0.0000 C   0  0  0  0  0  0  0  0  0  0  0  0
   -5.7376   -2.9564   -0.0000 C   0  0  0  0  0  0  0  0  0  0  0  0
   -5.7376    0.0467   -0.0000 C   0  0  0  0  0  0  0  0  0  0  0  0
   -7.0463   -2.1969   -0.0000 C   0  0  0  0  0  0  0  0  0  0  0  0
   -7.0463   -0.7011   -0.0000 C   0  0  0  0  0  0  0  0  0  0  0  0
  1  2  2  0
  1  3  1  0
  2  4  1  0
  2  5  1  0
  3  6  2  0
  4  7  1  0
  4  8  2  0
  7  9  1  0
  8 10  1  0
  9 11  2  0
 10 12  2  0
 11 13  1  0
 12 14  1  0
  6  8  1  0
  9 10  1  0
 13 14  2  0
M  END
>  <MolRegNo>  (1) 
9837

>  <m>  (1) 
=

>  <Value>  (1) 
86000

>  <Unit>  (1) 
nM

>  <Type>  (1) 
Ki

>  <pValue>  (1) 
4.07

>  <Ligand Efficiency>  (1) 
0

>  <Binding Efficiency>  (1) 
0

>  <Surface Efficiency>  (1) 
0

>  <Assay Index>  (1) 
122804

>  <Assay Category>  (1) 


>  <Assay Organism>  (1) 
Homo sapiens

>  <Target ID>  (1) 
11365

>  <Target Name>  (1) 
Cytochrome P450 2D6

>  <Target Organism>  (1) 
Homo sapiens

>  <Target Description>  (1) 
Target is a single protein chain

>  <Sequence Accession>  (1) 
P10635

>  <Reference>  (1) 
J Med Chem 36 (9), 1136-1145 (1993)

>  <Pubmed ID>  (1) 
8487254

>  <DOI>  (1) 
10.1021/jm00061a004

$$$$
