4wnv_ligand_41
     RDKit          2D

 29 33  0  0  1  0  0  0  0  0999 V2000
    0.0000   -0.0000   -0.0000 O   0  0  0  0  0  0  0  0  0  0  0  0
    1.2919    0.7704   -0.0000 C   0  0  0  0  0  0  0  0  0  0  0  0
    2.5837    0.0237   -0.0000 C   0  0  0  0  0  0  0  0  0  0  0  0
    1.2800    2.2874   -0.0000 C   0  0  0  0  0  0  0  0  0  0  0  0
    3.8756    0.7941   -0.0000 C   0  0  0  0  0  0  0  0  0  0  0  0
    2.5719    3.0460   -0.0000 C   0  0  0  0  0  0  0  0  0  0  0  0
    3.8638    2.3111   -0.0000 C   0  0  0  0  0  0  0  0  0  0  0  0
    5.1675    0.0474   -0.0000 C   0  0  0  0  0  0  0  0  0  0  0  0
    5.1556    3.0697   -0.0000 C   0  0  0  0  0  0  0  0  0  0  0  0
    3.8519    3.8282   -0.0000 C   0  0  0  0  0  0  0  0  0  0  0  0
    6.4712    0.8178   -0.0000 C   0  0  0  0  0  0  0  0  0  0  0  0
    6.4594    2.3349   -0.0000 C   0  0  0  0  0  0  0  0  0  0  0  0
    5.1438    4.5867   -0.0000 C   0  0  0  0  0  0  0  0  0  0  0  0
    7.7631    0.0711   -0.0000 C   0  0  0  0  0  0  0  0  0  0  0  0
    7.7512    3.1052   -0.0000 C   0  0  0  0  0  0  0  0  0  0  0  0
    6.4475    5.3453   -0.0000 C   0  0  0  0  0  0  0  0  0  0  0  0
    7.7512   -1.4222   -0.0000 C   0  0  0  0  0  0  0  0  0  0  0  0
    7.7394    4.6104   -0.0000 C   0  0  0  0  0  0  0  0  0  0  0  0
    9.1616    2.6549   -0.0000 C   0  0  0  0  0  0  0  0  0  0  0  0
    9.0431   -2.1571   -0.0000 C   0  0  0  0  0  0  0  0  0  0  0  0
    9.1498    5.0964   -0.0000 C   0  0  0  0  0  0  0  0  0  0  0  0
    7.7157    6.1275   -0.0000 C   0  0  0  0  0  0  0  0  0  0  0  0
   10.0268    3.8875   -0.0000 C   0  0  0  0  0  0  0  0  0  0  0  0
    8.4861   -3.5556   -0.0000 C   0  0  0  0  0  0  0  0  0  0  0  0
   10.5128   -1.9200   -0.0000 C   0  0  0  0  0  0  0  0  0  0  0  0
    9.6120    6.5305   -0.0000 O   0  0  0  0  0  0  0  0  0  0  0  0
    9.4105   -4.7171   -0.0000 C   0  0  0  0  0  0  0  0  0  0  0  0
   11.4372   -3.0815   -0.0000 C   0  0  0  0  0  0  0  0  0  0  0  0
   10.8802   -4.4801   -0.0000 C   0  0  0  0  0  0  0  0  0  0  0  0
  1  2  2  0
  2  3  1  0
  2  4  1  0
  3  5  2  0
  4  6  1  0
  5  7  1  0
  5  8  1  0
  7  9  1  0
  7 10  1  1
  8 11  1  0
 12  9  1  0
  9 13  1  1
 11 14  1  6
 12 15  1  0
 13 16  1  0
 14 17  1  0
 15 18  1  0
 15 19  1  1
 17 20  1  0
 18 21  1  0
 18 22  1  1
 19 23  1  0
 20 24  2  0
 20 25  1  0
 21 26  2  0
 24 27  1  0
 25 28  2  0
 27 29  2  0
  6  7  1  0
 12 11  1  6
 16 18  1  0
 21 23  1  0
 28 29  1  0
M  END
>  <MolRegNo>  (1) 
1798160

>  <m>  (1) 
=

>  <Value>  (1) 
16.5

>  <Unit>  (1) 
nM

>  <Type>  (1) 
Ki

>  <pValue>  (1) 
7.78

>  <Ligand Efficiency>  (1) 
0.37

>  <Binding Efficiency>  (1) 
19.93

>  <Surface Efficiency>  (1) 
22.8

>  <Assay Index>  (1) 
36121

>  <Assay Category>  (1) 


>  <Assay Organism>  (1) 


>  <Target ID>  (1) 
65

>  <Target Name>  (1) 
Cytochrome P450 19A1

>  <Target Organism>  (1) 
Homo sapiens

>  <Target Description>  (1) 
Target is a single protein chain

>  <Sequence Accession>  (1) 
P11511

>  <Reference>  (1) 
Bioorg Med Chem Lett 5 (21), 2513-2516 (1995)

>  <Pubmed ID>  (1) 


>  <DOI>  (1) 
10.1016/0960-894X(95)00440-5

$$$$
