4wnv_ligand_123
     RDKit          2D

 20 23  0  0  0  0  0  0  0  0999 V2000
    0.0000   -0.0000   -0.0000 O   0  0  0  0  0  0  0  0  0  0  0  0
    1.2830    0.7603   -0.0000 C   0  0  0  0  0  0  0  0  0  0  0  0
    2.5661    0.0238   -0.0000 C   0  0  0  0  0  0  0  0  0  0  0  0
    1.2712    2.2809   -0.0000 C   0  0  0  0  0  0  0  0  0  0  0  0
    3.8491    0.7841   -0.0000 C   0  0  0  0  0  0  0  0  0  0  0  0
    2.5542    3.0413   -0.0000 C   0  0  0  0  0  0  0  0  0  0  0  0
    3.8491    2.3047   -0.0000 C   0  0  0  0  0  0  0  0  0  0  0  0
    5.1321    0.0475   -0.0000 C   0  0  0  0  0  0  0  0  0  0  0  0
    5.1321    3.0650   -0.0000 C   0  0  0  0  0  0  0  0  0  0  0  0
    3.8253    3.8135   -0.0000 C   0  0  0  0  0  0  0  0  0  0  0  0
    6.4270    0.8078   -0.0000 C   0  0  0  0  0  0  0  0  0  0  0  0
    6.4152    2.3166   -0.0000 C   0  0  0  0  0  0  0  0  0  0  0  0
    5.1202    4.5857   -0.0000 C   0  0  0  0  0  0  0  0  0  0  0  0
    7.6982    3.0769   -0.0000 C   0  0  0  0  0  0  0  0  0  0  0  0
    6.4270    5.3460   -0.0000 C   0  0  0  0  0  0  0  0  0  0  0  0
    7.7101    4.5857   -0.0000 C   0  0  0  0  0  0  0  0  0  0  0  0
    9.1119    2.6136   -0.0000 C   0  0  0  0  0  0  0  0  0  0  0  0
    9.1475    5.0490   -0.0000 C   0  0  0  0  0  0  0  0  0  0  0  0
    7.6982    6.1063   -0.0000 C   0  0  0  0  0  0  0  0  0  0  0  0
   10.0029    3.8253   -0.0000 C   0  0  0  0  0  0  0  0  0  0  0  0
  1  2  2  0
  2  3  1  0
  2  4  1  0
  3  5  2  0
  4  6  2  0
  5  7  1  0
  5  8  1  0
  7  9  1  0
  7 10  1  0
  8 11  1  0
  9 12  1  0
  9 13  1  0
 12 14  1  0
 13 15  1  0
 14 16  1  0
 14 17  1  0
 16 18  1  0
 16 19  1  0
 17 20  1  0
  6  7  1  0
 11 12  1  0
 15 16  1  0
 18 20  1  0
M  END
>  <MolRegNo>  (1) 
264589

>  <m>  (1) 
=

>  <Value>  (1) 
1100

>  <Unit>  (1) 
nM

>  <Type>  (1) 
Ki

>  <pValue>  (1) 
5.96

>  <Ligand Efficiency>  (1) 
0.41

>  <Binding Efficiency>  (1) 
22.03

>  <Surface Efficiency>  (1) 
34.91

>  <Assay Index>  (1) 
50939

>  <Assay Category>  (1) 


>  <Assay Organism>  (1) 
Homo sapiens

>  <Target ID>  (1) 
65

>  <Target Name>  (1) 
Cytochrome P450 19A1

>  <Target Organism>  (1) 
Homo sapiens

>  <Target Description>  (1) 
Target is a single protein chain

>  <Sequence Accession>  (1) 
P11511

>  <Reference>  (1) 
J Med Chem 32 (3), 651-658 (1989)

>  <Pubmed ID>  (1) 
2918514

>  <DOI>  (1) 
10.1021/jm00123a026

$$$$
