4wnv_ligand_9
     RDKit          2D

 37 40  0  0  0  0  0  0  0  0999 V2000
    0.0000   -0.0000   -0.0000 F   0  0  0  0  0  0  0  0  0  0  0  0
    1.3086   -0.7563   -0.0000 C   0  0  0  0  0  0  0  0  0  0  0  0
    2.6052    0.0240   -0.0000 C   0  0  0  0  0  0  0  0  0  0  0  0
    1.2966   -2.2570   -0.0000 C   0  0  0  0  0  0  0  0  0  0  0  0
    3.8897   -0.7323   -0.0000 C   0  0  0  0  0  0  0  0  0  0  0  0
    2.5932   -3.0013   -0.0000 C   0  0  0  0  0  0  0  0  0  0  0  0
    3.8777   -2.2330   -0.0000 C   0  0  0  0  0  0  0  0  0  0  0  0
    5.1743   -2.9773   -0.0000 C   0  0  0  0  0  0  0  0  0  0  0  0
    5.1623   -4.4660   -0.0000 N   0  0  0  0  0  0  0  0  0  0  0  0
    6.4589   -2.2090   -0.0000 C   0  0  0  0  0  0  0  0  0  0  0  0
    3.8537   -5.2103   -0.0000 C   0  0  0  0  0  0  0  0  0  0  0  0
    6.4589   -5.2103   -0.0000 C   0  0  0  0  0  0  0  0  0  0  0  0
    6.4469   -0.6843   -0.0000 O   0  0  0  0  0  0  0  0  0  0  0  0
    7.7555   -2.9533   -0.0000 N   0  0  0  0  0  0  0  0  0  0  0  0
    3.8417   -6.6990   -0.0000 C   0  0  0  0  0  0  0  0  0  0  0  0
    6.4469   -6.6990   -0.0000 C   0  0  0  0  0  0  0  0  0  0  0  0
    9.0400   -2.1850   -0.0000 C   0  0  0  0  0  0  0  0  0  0  0  0
    5.1263   -7.4433   -0.0000 N   0  0  0  0  0  0  0  0  0  0  0  0
    9.0280   -0.6603   -0.0000 C   0  0  0  0  0  0  0  0  0  0  0  0
    5.1143   -8.9320   -0.0000 C   0  0  0  0  0  0  0  0  0  0  0  0
   10.3126    0.1201   -0.0000 C   0  0  0  0  0  0  0  0  0  0  0  0
    7.7195    0.1201   -0.0000 C   0  0  0  0  0  0  0  0  0  0  0  0
    6.3989   -9.6763   -0.0000 C   0  0  0  0  0  0  0  0  0  0  0  0
   10.3006    1.6327   -0.0000 C   0  0  0  0  0  0  0  0  0  0  0  0
    7.7074    1.6327   -0.0000 C   0  0  0  0  0  0  0  0  0  0  0  0
    7.6834   -8.9080   -0.0000 O   0  0  0  0  0  0  0  0  0  0  0  0
    6.3869  -11.1890   -0.0000 C   0  0  0  0  0  0  0  0  0  0  0  0
    8.9920    2.4011   -0.0000 C   0  0  0  0  0  0  0  0  0  0  0  0
    7.6714  -11.9213   -0.0000 O   0  0  0  0  0  0  0  0  0  0  0  0
    7.6594  -13.4220   -0.0000 C   0  0  0  0  0  0  0  0  0  0  0  0
    8.9440  -14.1663   -0.0000 C   0  0  0  0  0  0  0  0  0  0  0  0
    6.3388  -14.1663   -0.0000 C   0  0  0  0  0  0  0  0  0  0  0  0
    8.9320  -15.6550   -0.0000 C   0  0  0  0  0  0  0  0  0  0  0  0
    6.3268  -15.6550   -0.0000 C   0  0  0  0  0  0  0  0  0  0  0  0
    7.6234  -16.3993   -0.0000 C   0  0  0  0  0  0  0  0  0  0  0  0
    7.6234  -17.8880   -0.0000 O   0  0  0  0  0  0  0  0  0  0  0  0
    8.9200  -18.6323   -0.0000 C   0  0  0  0  0  0  0  0  0  0  0  0
  1  2  1  0
  2  3  2  0
  2  4  1  0
  3  5  1  0
  4  6  2  0
  5  7  2  0
  7  8  1  0
  8  9  1  0
  8 10  1  0
  9 11  1  0
  9 12  1  0
 10 13  2  0
 10 14  1  0
 11 15  1  0
 12 16  1  0
 14 17  1  0
 15 18  1  0
 17 19  1  0
 18 20  1  0
 19 21  2  0
 19 22  1  0
 20 23  1  0
 21 24  1  0
 22 25  2  0
 23 26  1  0
 23 27  1  0
 24 28  2  0
 27 29  1  0
 29 30  1  0
 30 31  2  0
 30 32  1  0
 31 33  1  0
 32 34  2  0
 33 35  2  0
 35 36  1  0
 36 37  1  0
  6  7  1  0
 16 18  1  0
 25 28  1  0
 34 35  1  0
M  END
>  <MolRegNo>  (1) 
97297

>  <m>  (1) 
=

>  <Value>  (1) 
5000

>  <Unit>  (1) 
nM

>  <Type>  (1) 
Ki

>  <pValue>  (1) 
5.3

>  <Ligand Efficiency>  (1) 
0

>  <Binding Efficiency>  (1) 
0

>  <Surface Efficiency>  (1) 
0

>  <Assay Index>  (1) 
51650

>  <Assay Category>  (1) 


>  <Assay Organism>  (1) 


>  <Target ID>  (1) 
11365

>  <Target Name>  (1) 
Cytochrome P450 2D6

>  <Target Organism>  (1) 
Homo sapiens

>  <Target Description>  (1) 
Target is a single protein chain

>  <Sequence Accession>  (1) 
P10635

>  <Reference>  (1) 
Bioorg Med Chem Lett 14 (9), 2025-2030 (2004)

>  <Pubmed ID>  (1) 
15080972

>  <DOI>  (1) 
10.1016/j.bmcl.2004.02.078

$$$$
