4wnv_ligand_344
     RDKit          2D

 21 24  0  0  1  0  0  0  0  0999 V2000
    0.0000   -0.0000   -0.0000 O   0  0  0  0  0  0  0  0  0  0  0  0
    1.2813    0.7593   -0.0000 C   0  0  0  0  0  0  0  0  0  0  0  0
    2.5625    0.0237   -0.0000 C   0  0  0  0  0  0  0  0  0  0  0  0
    1.2694    2.2778   -0.0000 C   0  0  0  0  0  0  0  0  0  0  0  0
    3.8557    0.7830   -0.0000 C   0  0  0  0  0  0  0  0  0  0  0  0
    2.5507    3.0489   -0.0000 C   0  0  0  0  0  0  0  0  0  0  0  0
    3.8557    2.3015   -0.0000 C   0  0  0  0  0  0  0  0  0  0  0  0
    5.1369    0.0356   -0.0000 C   0  0  0  0  0  0  0  0  0  0  0  0
    5.1488    3.0608   -0.0000 C   0  0  0  0  0  0  0  0  0  0  0  0
    3.8319    3.8082   -0.0000 C   0  0  0  0  0  0  0  0  0  0  0  0
    6.4300    0.7949   -0.0000 C   0  0  0  0  0  0  0  0  0  0  0  0
    6.4300    2.3015   -0.0000 C   0  0  0  0  0  0  0  0  0  0  0  0
    5.1488    4.5793   -0.0000 C   0  0  0  0  0  0  0  0  0  0  0  0
    7.7232    3.0608   -0.0000 C   0  0  0  0  0  0  0  0  0  0  0  0
    6.4538    5.3267   -0.0000 C   0  0  0  0  0  0  0  0  0  0  0  0
    7.7232    4.5675   -0.0000 C   0  0  0  0  0  0  0  0  0  0  0  0
    9.1349    2.5981   -0.0000 C   0  0  0  0  0  0  0  0  0  0  0  0
    9.1468    5.0301   -0.0000 C   0  0  0  0  0  0  0  0  0  0  0  0
    7.6994    6.0741   -0.0000 C   0  0  0  0  0  0  0  0  0  0  0  0
   10.0247    3.8082   -0.0000 C   0  0  0  0  0  0  0  0  0  0  0  0
    9.6095    6.4656   -0.0000 O   0  0  0  0  0  0  0  0  0  0  0  0
  1  2  2  0
  2  3  1  0
  2  4  1  0
  3  5  2  0
  4  6  2  0
  5  7  1  0
  5  8  1  0
  7  9  1  0
  7 10  1  1
  8 11  1  0
  9 12  1  0
  9 13  1  1
 12 14  1  0
 13 15  1  0
 14 16  1  0
 14 17  1  1
 16 18  1  0
 16 19  1  1
 17 20  1  0
 18 21  1  1
  6  7  1  0
 12 11  1  6
 15 16  1  0
 18 20  1  0
M  END
>  <MolRegNo>  (1) 
351595

>  <m>  (1) 
=

>  <Value>  (1) 
260

>  <Unit>  (1) 
nM

>  <Type>  (1) 
Ki

>  <pValue>  (1) 
6.58

>  <Ligand Efficiency>  (1) 
0.43

>  <Binding Efficiency>  (1) 
22.99

>  <Surface Efficiency>  (1) 
17.65

>  <Assay Index>  (1) 
985548

>  <Assay Category>  (1) 


>  <Assay Organism>  (1) 
Homo sapiens

>  <Target ID>  (1) 
65

>  <Target Name>  (1) 
Cytochrome P450 19A1

>  <Target Organism>  (1) 
Homo sapiens

>  <Target Description>  (1) 
Target is a single protein chain

>  <Sequence Accession>  (1) 
P11511

>  <Reference>  (1) 


>  <Pubmed ID>  (1) 
26469743

>  <DOI>  (1) 
10.1016/j.ejmech.2015.09.038

$$$$
