4wnv_ligand_166
     RDKit          2D

 21 23  0  0  0  0  0  0  0  0999 V2000
    0.0000   -0.0000   -0.0000 O   0  0  0  0  0  0  0  0  0  0  0  0
    1.2897   -0.7404   -0.0000 C   0  0  0  0  0  0  0  0  0  0  0  0
    2.5793    0.0239   -0.0000 C   0  0  0  0  0  0  0  0  0  0  0  0
    1.2777   -2.2330   -0.0000 C   0  0  0  0  0  0  0  0  0  0  0  0
    3.8690   -0.7284   -0.0000 C   0  0  0  0  0  0  0  0  0  0  0  0
    2.5674    1.5285   -0.0000 C   0  0  0  0  0  0  0  0  0  0  0  0
   -0.0358   -2.9734   -0.0000 C   0  0  0  0  0  0  0  0  0  0  0  0
    2.5674   -2.9734   -0.0000 C   0  0  0  0  0  0  0  0  0  0  0  0
    5.1586    0.0358   -0.0000 C   0  0  0  0  0  0  0  0  0  0  0  0
    3.8570    2.2927   -0.0000 C   0  0  0  0  0  0  0  0  0  0  0  0
   -1.3494   -2.2211   -0.0000 C   0  0  0  0  0  0  0  0  0  0  0  0
   -0.0358   -4.4780   -0.0000 C   0  0  0  0  0  0  0  0  0  0  0  0
    2.5554   -4.4660   -0.0000 N   0  0  0  0  0  0  0  0  0  0  0  0
    5.1467    1.5524   -0.0000 C   0  0  0  0  0  0  0  0  0  0  0  0
   -2.6629   -2.9614   -0.0000 C   0  0  0  0  0  0  0  0  0  0  0  0
   -1.3494   -5.2183   -0.0000 C   0  0  0  0  0  0  0  0  0  0  0  0
    3.7615   -5.3258   -0.0000 N   0  0  0  0  0  0  0  0  0  0  0  0
    1.3255   -5.3258   -0.0000 C   0  0  0  0  0  0  0  0  0  0  0  0
   -2.6749   -4.4541   -0.0000 C   0  0  0  0  0  0  0  0  0  0  0  0
    3.2839   -6.7468   -0.0000 N   0  0  0  0  0  0  0  0  0  0  0  0
    1.7793   -6.7468   -0.0000 C   0  0  0  0  0  0  0  0  0  0  0  0
  1  2  2  0
  2  3  1  0
  2  4  1  0
  3  5  2  0
  3  6  1  0
  4  7  1  0
  4  8  1  0
  5  9  1  0
  6 10  2  0
  7 11  2  0
  7 12  1  0
  8 13  1  0
  9 14  2  0
 11 15  1  0
 12 16  2  0
 13 17  1  0
 13 18  1  0
 15 19  2  0
 17 20  2  0
 18 21  2  0
 10 14  1  0
 16 19  1  0
 20 21  1  0
M  END
>  <MolRegNo>  (1) 
1271153

>  <m>  (1) 
=

>  <Value>  (1) 
1000

>  <Unit>  (1) 
nM

>  <Type>  (1) 
Ki

>  <pValue>  (1) 
6

>  <Ligand Efficiency>  (1) 
0.39

>  <Binding Efficiency>  (1) 
21.63

>  <Surface Efficiency>  (1) 
12.56

>  <Assay Index>  (1) 
630342

>  <Assay Category>  (1) 


>  <Assay Organism>  (1) 
Homo sapiens

>  <Target ID>  (1) 
65

>  <Target Name>  (1) 
Cytochrome P450 19A1

>  <Target Organism>  (1) 
Homo sapiens

>  <Target Description>  (1) 
Target is a single protein chain

>  <Sequence Accession>  (1) 
P11511

>  <Reference>  (1) 
Bioorg Med Chem Lett 22 (1), 718-722 (2012)

>  <Pubmed ID>  (1) 
22079757

>  <DOI>  (1) 
10.1016/j.bmcl.2011.10.039

$$$$
