4wnv_ligand_286
     RDKit          2D

 29 33  0  0  0  0  0  0  0  0999 V2000
    0.0000   -0.0000   -0.0000 O   0  0  0  0  0  0  0  0  0  0  0  0
    1.0556    0.6293   -0.0000 C   0  0  0  0  0  0  0  0  0  0  0  0
    2.3142   -0.1015   -0.0000 C   0  0  0  0  0  0  0  0  0  0  0  0
    1.0353    2.1315   -0.0000 C   0  0  0  0  0  0  0  0  0  0  0  0
    2.2939   -1.6240   -0.0000 O   0  0  0  0  0  0  0  0  0  0  0  0
    3.5728    0.6902   -0.0000 C   0  0  0  0  0  0  0  0  0  0  0  0
    2.2736    2.8826   -0.0000 C   0  0  0  0  0  0  0  0  0  0  0  0
    0.9338   -2.3751   -0.0000 C   0  0  0  0  0  0  0  0  0  0  0  0
    3.5525    2.1924   -0.0000 C   0  0  0  0  0  0  0  0  0  0  0  0
    4.8517   -0.0406   -0.0000 C   0  0  0  0  0  0  0  0  0  0  0  0
    0.9135   -3.8976   -0.0000 C   0  0  0  0  0  0  0  0  0  0  0  0
    4.8111    2.9435   -0.0000 C   0  0  0  0  0  0  0  0  0  0  0  0
    3.5119    3.4510   -0.0000 C   0  0  0  0  0  0  0  0  0  0  0  0
    6.1104    0.7511   -0.0000 C   0  0  0  0  0  0  0  0  0  0  0  0
    2.2127   -4.6487   -0.0000 C   0  0  0  0  0  0  0  0  0  0  0  0
   -0.4466   -4.6487   -0.0000 C   0  0  0  0  0  0  0  0  0  0  0  0
    6.0698    2.2533   -0.0000 C   0  0  0  0  0  0  0  0  0  0  0  0
    4.7705    4.4660   -0.0000 C   0  0  0  0  0  0  0  0  0  0  0  0
    2.1924   -6.1713   -0.0000 C   0  0  0  0  0  0  0  0  0  0  0  0
   -0.4669   -6.1713   -0.0000 C   0  0  0  0  0  0  0  0  0  0  0  0
    7.3284    3.0044   -0.0000 C   0  0  0  0  0  0  0  0  0  0  0  0
    6.0292    5.2374   -0.0000 C   0  0  0  0  0  0  0  0  0  0  0  0
    0.8323   -6.9224   -0.0000 C   0  0  0  0  0  0  0  0  0  0  0  0
    7.3081    4.5066   -0.0000 C   0  0  0  0  0  0  0  0  0  0  0  0
    9.8862    3.0044   -0.0000 C   0  0  0  0  0  0  0  0  0  0  0  0
    8.5667    5.2983   -0.0000 C   0  0  0  0  0  0  0  0  0  0  0  0
    7.2878    5.7653   -0.0000 C   0  0  0  0  0  0  0  0  0  0  0  0
    9.8659    4.5472   -0.0000 C   0  0  0  0  0  0  0  0  0  0  0  0
    8.5464    6.5570   -0.0000 O   0  0  0  0  0  0  0  0  0  0  0  0
  1  2  2  0
  2  3  1  0
  2  4  1  0
  3  5  1  0
  3  6  2  0
  4  7  1  0
  5  8  1  0
  6  9  1  0
  6 10  1  0
  8 11  1  0
  9 12  1  0
  9 13  1  6
 10 14  1  0
 11 15  2  0
 11 16  1  0
 12 17  1  0
 12 18  1  6
 15 19  1  0
 16 20  2  0
 17 21  1  0
 18 22  1  0
 19 23  2  0
 21 24  1  0
 21 25  1  6
 24 26  1  0
 24 27  1  6
 25 28  1  0
 26 29  2  0
  7  9  1  0
 17 14  1  1
 20 23  1  0
 22 24  1  0
 26 28  1  0
M  END
>  <MolRegNo>  (1) 
2057828

>  <m>  (1) 
=

>  <Value>  (1) 
38

>  <Unit>  (1) 
nM

>  <Type>  (1) 
Ki

>  <pValue>  (1) 
7.42

>  <Ligand Efficiency>  (1) 
0.35

>  <Binding Efficiency>  (1) 
18.9

>  <Surface Efficiency>  (1) 
17.11

>  <Assay Index>  (1) 
985527

>  <Assay Category>  (1) 


>  <Assay Organism>  (1) 
Homo sapiens

>  <Target ID>  (1) 
65

>  <Target Name>  (1) 
Cytochrome P450 19A1

>  <Target Organism>  (1) 
Homo sapiens

>  <Target Description>  (1) 
Target is a single protein chain

>  <Sequence Accession>  (1) 
P11511

>  <Reference>  (1) 


>  <Pubmed ID>  (1) 
26469743

>  <DOI>  (1) 
10.1016/j.ejmech.2015.09.038

$$$$
