4wnv_ligand_95
     RDKit          2D

 23 26  0  0  1  0  0  0  0  0999 V2000
    0.0000   -0.0000   -0.0000 O   0  0  0  0  0  0  0  0  0  0  0  0
    1.2868    0.7685   -0.0000 C   0  0  0  0  0  0  0  0  0  0  0  0
    2.5735    0.0357   -0.0000 C   0  0  0  0  0  0  0  0  0  0  0  0
    1.2689    2.2876   -0.0000 C   0  0  0  0  0  0  0  0  0  0  0  0
    3.8424    0.8042   -0.0000 C   0  0  0  0  0  0  0  0  0  0  0  0
    2.5557    3.0561   -0.0000 C   0  0  0  0  0  0  0  0  0  0  0  0
    3.8245    2.3233   -0.0000 C   0  0  0  0  0  0  0  0  0  0  0  0
    5.1292    0.0715   -0.0000 C   0  0  0  0  0  0  0  0  0  0  0  0
    3.8067    3.8424   -0.0000 C   0  0  0  0  0  0  0  0  0  0  0  0
    5.1113    3.0918   -0.0000 C   0  0  0  0  0  0  0  0  0  0  0  0
    6.4159    0.8400   -0.0000 C   0  0  0  0  0  0  0  0  0  0  0  0
    2.4842    4.6109   -0.0000 C   0  0  0  0  0  0  0  0  0  0  0  0
    6.3802    2.3412   -0.0000 C   0  0  0  0  0  0  0  0  0  0  0  0
    5.0756    4.6288   -0.0000 C   0  0  0  0  0  0  0  0  0  0  0  0
    2.4484    6.1300   -0.0000 C   0  0  0  0  0  0  0  0  0  0  0  0
    7.6848    3.2705   -0.0000 C   0  0  0  0  0  0  0  0  0  0  0  0
    6.3981    5.3615   -0.0000 C   0  0  0  0  0  0  0  0  0  0  0  0
    7.6670    4.5930   -0.0000 C   0  0  0  0  0  0  0  0  0  0  0  0
    9.9367    3.2884   -0.0000 C   0  0  0  0  0  0  0  0  0  0  0  0
    8.7929    5.2722   -0.0000 C   0  0  0  0  0  0  0  0  0  0  0  0
    7.6491    6.1121   -0.0000 C   0  0  0  0  0  0  0  0  0  0  0  0
    9.9188    4.6109   -0.0000 C   0  0  0  0  0  0  0  0  0  0  0  0
    8.7750    6.6125   -0.0000 O   0  0  0  0  0  0  0  0  0  0  0  0
  1  2  2  0
  2  3  1  0
  2  4  1  0
  3  5  2  0
  4  6  1  0
  5  7  1  0
  5  8  1  0
  7  9  1  1
  7 10  1  0
  8 11  1  0
  9 12  2  0
 10 13  1  0
 10 14  1  0
 12 15  1  0
 13 16  1  0
 14 17  1  0
 16 18  1  0
 16 19  1  0
 18 20  1  0
 18 21  1  1
 19 22  1  0
 20 23  2  0
  6  7  1  0
 11 13  1  0
 17 18  1  0
 20 22  1  0
M  END
>  <MolRegNo>  (1) 
163388

>  <m>  (1) 
=

>  <Value>  (1) 
56

>  <Unit>  (1) 
nM

>  <Type>  (1) 
Ki

>  <pValue>  (1) 
7.25

>  <Ligand Efficiency>  (1) 
0.43

>  <Binding Efficiency>  (1) 
23.21

>  <Surface Efficiency>  (1) 
21.24

>  <Assay Index>  (1) 
50795

>  <Assay Category>  (1) 


>  <Assay Organism>  (1) 


>  <Target ID>  (1) 
65

>  <Target Name>  (1) 
Cytochrome P450 19A1

>  <Target Organism>  (1) 
Homo sapiens

>  <Target Description>  (1) 
Target is a single protein chain

>  <Sequence Accession>  (1) 
P11511

>  <Reference>  (1) 
J Med Chem 33 (11), 2933-2942 (1990)

>  <Pubmed ID>  (1) 
2231592

>  <DOI>  (1) 
10.1021/jm00173a001

$$$$
