4wnv_ligand_263
     RDKit          2D

 20 23  0  0  0  0  0  0  0  0999 V2000
    0.0000   -0.0000   -0.0000 O   0  0  0  0  0  0  0  0  0  0  0  0
    0.0000   -1.2169   -0.0000 C   0  0  0  0  0  0  0  0  0  0  0  0
   -1.3004   -1.9684   -0.0000 C   0  0  0  0  0  0  0  0  0  0  0  0
    1.2765   -1.9565   -0.0000 C   0  0  0  0  0  0  0  0  0  0  0  0
   -1.3123   -3.4358   -0.0000 C   0  0  0  0  0  0  0  0  0  0  0  0
   -2.5888   -1.2049   -0.0000 C   0  0  0  0  0  0  0  0  0  0  0  0
   -1.3123   -0.7277   -0.0000 C   0  0  0  0  0  0  0  0  0  0  0  0
    1.2646   -3.4597   -0.0000 C   0  0  0  0  0  0  0  0  0  0  0  0
   -2.6007   -4.1516   -0.0000 C   0  0  0  0  0  0  0  0  0  0  0  0
   -3.8892   -1.9446   -0.0000 C   0  0  0  0  0  0  0  0  0  0  0  0
   -3.8892   -3.4239   -0.0000 C   0  0  0  0  0  0  0  0  0  0  0  0
   -2.5888   -5.6190   -0.0000 C   0  0  0  0  0  0  0  0  0  0  0  0
   -5.1776   -4.1397   -0.0000 C   0  0  0  0  0  0  0  0  0  0  0  0
   -3.8772   -6.3706   -0.0000 C   0  0  0  0  0  0  0  0  0  0  0  0
   -5.1895   -5.6071   -0.0000 C   0  0  0  0  0  0  0  0  0  0  0  0
   -6.5018   -3.4120   -0.0000 C   0  0  0  0  0  0  0  0  0  0  0  0
   -5.2015   -2.8990   -0.0000 C   0  0  0  0  0  0  0  0  0  0  0  0
   -6.4899   -6.3587   -0.0000 C   0  0  0  0  0  0  0  0  0  0  0  0
   -7.7664   -4.1278   -0.0000 C   0  0  0  0  0  0  0  0  0  0  0  0
   -7.7783   -5.5952   -0.0000 C   0  0  0  0  0  0  0  0  0  0  0  0
  2  1  1  6
  2  3  1  0
  2  4  1  0
  3  5  1  0
  3  6  1  0
  3  7  1  6
  4  8  1  0
  5  9  1  0
  6 10  1  0
  9 11  1  0
  9 12  1  1
 11 13  1  0
 12 14  1  0
 13 15  1  0
 13 16  1  0
 13 17  1  6
 15 18  1  0
 16 19  1  0
 18 20  2  0
  5  8  1  6
 11 10  1  6
 14 15  2  0
 19 20  1  0
M  END
>  <MolRegNo>  (1) 
2058113

>  <m>  (1) 
=

>  <Value>  (1) 
58

>  <Unit>  (1) 
nM

>  <Type>  (1) 
Ki

>  <pValue>  (1) 
7.24

>  <Ligand Efficiency>  (1) 
0.49

>  <Binding Efficiency>  (1) 
26.56

>  <Surface Efficiency>  (1) 
35.77

>  <Assay Index>  (1) 
985353

>  <Assay Category>  (1) 


>  <Assay Organism>  (1) 
Homo sapiens

>  <Target ID>  (1) 
65

>  <Target Name>  (1) 
Cytochrome P450 19A1

>  <Target Organism>  (1) 
Homo sapiens

>  <Target Description>  (1) 
Target is a single protein chain

>  <Sequence Accession>  (1) 
P11511

>  <Reference>  (1) 


>  <Pubmed ID>  (1) 
26469743

>  <DOI>  (1) 
10.1016/j.ejmech.2015.09.038

$$$$
