4wnv_ligand_377
     RDKit          2D

 21 24  0  0  1  0  0  0  0  0999 V2000
    0.0000   -0.0000   -0.0000 Br  0  0  0  0  0  0  0  0  0  0  0  0
    1.2929   -0.7354   -0.0000 C   0  0  0  0  0  0  0  0  0  0  0  0
    1.2810   -2.2300   -0.0000 C   0  0  0  0  0  0  0  0  0  0  0  0
    2.5739    0.0356   -0.0000 C   0  0  0  0  0  0  0  0  0  0  0  0
   -0.0237   -2.9772   -0.0000 O   0  0  0  0  0  0  0  0  0  0  0  0
    2.5739   -2.9654   -0.0000 C   0  0  0  0  0  0  0  0  0  0  0  0
    3.8787   -0.6998   -0.0000 C   0  0  0  0  0  0  0  0  0  0  0  0
    3.8550   -2.1944   -0.0000 C   0  0  0  0  0  0  0  0  0  0  0  0
    5.1597    0.0830   -0.0000 C   0  0  0  0  0  0  0  0  0  0  0  0
    5.1597   -2.9298   -0.0000 C   0  0  0  0  0  0  0  0  0  0  0  0
    6.4526   -0.6642   -0.0000 C   0  0  0  0  0  0  0  0  0  0  0  0
    5.1479    1.6013   -0.0000 C   0  0  0  0  0  0  0  0  0  0  0  0
    6.4408   -2.1588   -0.0000 C   0  0  0  0  0  0  0  0  0  0  0  0
    7.7574    0.1068   -0.0000 C   0  0  0  0  0  0  0  0  0  0  0  0
    6.4526    2.3604   -0.0000 C   0  0  0  0  0  0  0  0  0  0  0  0
    7.7455    1.6250   -0.0000 C   0  0  0  0  0  0  0  0  0  0  0  0
    9.1689   -0.3558   -0.0000 C   0  0  0  0  0  0  0  0  0  0  0  0
    9.1689    2.0876   -0.0000 C   0  0  0  0  0  0  0  0  0  0  0  0
    7.7218    3.1314   -0.0000 C   0  0  0  0  0  0  0  0  0  0  0  0
   10.0466    0.8659   -0.0000 C   0  0  0  0  0  0  0  0  0  0  0  0
    9.6196    3.5347   -0.0000 O   0  0  0  0  0  0  0  0  0  0  0  0
  1  2  1  0
  2  3  2  0
  2  4  1  0
  3  5  1  0
  3  6  1  0
  4  7  2  0
  6  8  2  0
  7  9  1  0
  8 10  1  0
  9 11  1  0
  9 12  1  1
 10 13  1  0
 11 14  1  0
 12 15  1  0
 14 16  1  0
 14 17  1  1
 16 18  1  0
 16 19  1  1
 17 20  1  0
 18 21  1  1
  7  8  1  0
 11 13  1  6
 15 16  1  0
 18 20  1  0
M  END
>  <MolRegNo>  (1) 
1050955

>  <m>  (1) 
=

>  <Value>  (1) 
100

>  <Unit>  (1) 
nM

>  <Type>  (1) 
Ki

>  <pValue>  (1) 
7

>  <Ligand Efficiency>  (1) 
0.46

>  <Binding Efficiency>  (1) 
19.93

>  <Surface Efficiency>  (1) 
17.3

>  <Assay Index>  (1) 
985353

>  <Assay Category>  (1) 


>  <Assay Organism>  (1) 
Homo sapiens

>  <Target ID>  (1) 
65

>  <Target Name>  (1) 
Cytochrome P450 19A1

>  <Target Organism>  (1) 
Homo sapiens

>  <Target Description>  (1) 
Target is a single protein chain

>  <Sequence Accession>  (1) 
P11511

>  <Reference>  (1) 


>  <Pubmed ID>  (1) 
26469743

>  <DOI>  (1) 
10.1016/j.ejmech.2015.09.038

$$$$
