4wnv_ligand_67
     RDKit          2D

 29 31  0  0  0  0  0  0  0  0999 V2000
    0.0000   -0.0000   -0.0000 F   0  0  0  0  0  0  0  0  0  0  0  0
   -0.0121    1.4887   -0.0000 C   0  0  0  0  0  0  0  0  0  0  0  0
   -1.2829    2.3722   -0.0000 C   0  0  0  0  0  0  0  0  0  0  0  0
    1.3192    2.2148   -0.0000 C   0  0  0  0  0  0  0  0  0  0  0  0
   -1.3071    3.7761   -0.0000 C   0  0  0  0  0  0  0  0  0  0  0  0
    1.2950    3.7640   -0.0000 C   0  0  0  0  0  0  0  0  0  0  0  0
    0.0000    4.5265   -0.0000 C   0  0  0  0  0  0  0  0  0  0  0  0
   -0.0121    6.0757   -0.0000 C   0  0  0  0  0  0  0  0  0  0  0  0
    1.2708    6.7655   -0.0000 O   0  0  0  0  0  0  0  0  0  0  0  0
   -1.2587    6.7897   -0.0000 C   0  0  0  0  0  0  0  0  0  0  0  0
   -1.2708    8.2905   -0.0000 C   0  0  0  0  0  0  0  0  0  0  0  0
   -2.5416    9.0651   -0.0000 C   0  0  0  0  0  0  0  0  0  0  0  0
   -3.8729    8.3631   -0.0000 N   0  0  0  0  0  0  0  0  0  0  0  0
   -5.1558    9.1619   -0.0000 C   0  0  0  0  0  0  0  0  0  0  0  0
   -3.8850    6.8744   -0.0000 C   0  0  0  0  0  0  0  0  0  0  0  0
   -6.4871    8.4720   -0.0000 C   0  0  0  0  0  0  0  0  0  0  0  0
   -5.2890    6.1846   -0.0000 C   0  0  0  0  0  0  0  0  0  0  0  0
   -6.5114    7.0076   -0.0000 C   0  0  0  0  0  0  0  0  0  0  0  0
   -8.0484    7.3101   -0.0000 O   0  0  0  0  0  0  0  0  0  0  0  0
   -7.3586    5.7368   -0.0000 C   0  0  0  0  0  0  0  0  0  0  0  0
   -6.7050    4.4176   -0.0000 C   0  0  0  0  0  0  0  0  0  0  0  0
   -8.8956    5.7610   -0.0000 C   0  0  0  0  0  0  0  0  0  0  0  0
   -7.5401    3.1710   -0.0000 C   0  0  0  0  0  0  0  0  0  0  0  0
   -9.7065    4.5265   -0.0000 C   0  0  0  0  0  0  0  0  0  0  0  0
   -9.0288    3.1710   -0.0000 C   0  0  0  0  0  0  0  0  0  0  0  0
   -6.8623    1.8638   -0.0000 C   0  0  0  0  0  0  0  0  0  0  0  0
   -6.1846    0.5446   -0.0000 F   0  0  0  0  0  0  0  0  0  0  0  0
   -5.5310    2.5658   -0.0000 F   0  0  0  0  0  0  0  0  0  0  0  0
   -8.1937    1.1740   -0.0000 F   0  0  0  0  0  0  0  0  0  0  0  0
  1  2  1  0
  2  3  2  0
  2  4  1  0
  3  5  1  0
  4  6  2  0
  5  7  2  0
  7  8  1  0
  8  9  2  0
  8 10  1  0
 10 11  1  0
 11 12  1  0
 12 13  1  0
 13 14  1  0
 13 15  1  0
 14 16  1  0
 15 17  1  0
 16 18  1  0
 18 19  1  0
 18 20  1  0
 20 21  2  0
 20 22  1  0
 21 23  1  0
 22 24  2  0
 23 25  2  0
 23 26  1  0
 26 27  1  0
 26 28  1  0
 26 29  1  0
  6  7  1  0
 17 18  1  0
 24 25  1  0
M  END
>  <MolRegNo>  (1) 
14882

>  <m>  (1) 
=

>  <Value>  (1) 
170

>  <Unit>  (1) 
nM

>  <Type>  (1) 
Ki

>  <pValue>  (1) 
6.77

>  <Ligand Efficiency>  (1) 
0

>  <Binding Efficiency>  (1) 
0

>  <Surface Efficiency>  (1) 
0

>  <Assay Index>  (1) 
147623

>  <Assay Category>  (1) 


>  <Assay Organism>  (1) 
Homo sapiens

>  <Target ID>  (1) 
11365

>  <Target Name>  (1) 
Cytochrome P450 2D6

>  <Target Organism>  (1) 
Homo sapiens

>  <Target Description>  (1) 
Target is a single protein chain

>  <Sequence Accession>  (1) 
P10635

>  <Reference>  (1) 
J Med Chem 36 (9), 1136-1145 (1993)

>  <Pubmed ID>  (1) 
8487254

>  <DOI>  (1) 
10.1021/jm00061a004

$$$$
