4wnv_ligand_93
     RDKit          2D

 36 40  0  0  0  0  0  0  0  0999 V2000
    0.0000   -0.0000   -0.0000 Cl  0  0  0  0  0  0  0  0  0  0  0  0
    0.6031    1.3836   -0.0000 C   0  0  0  0  0  0  0  0  0  0  0  0
    2.0812    1.5491   -0.0000 C   0  0  0  0  0  0  0  0  0  0  0  0
   -0.2956    2.6134   -0.0000 C   0  0  0  0  0  0  0  0  0  0  0  0
    2.6843    2.9327   -0.0000 C   0  0  0  0  0  0  0  0  0  0  0  0
    2.9563    0.3429   -0.0000 C   0  0  0  0  0  0  0  0  0  0  0  0
    0.3075    3.9969   -0.0000 C   0  0  0  0  0  0  0  0  0  0  0  0
    1.7856    4.1625   -0.0000 C   0  0  0  0  0  0  0  0  0  0  0  0
    4.0561    1.3599   -0.0000 O   0  0  0  0  0  0  0  0  0  0  0  0
    3.5594   -1.0170   -0.0000 O   0  0  0  0  0  0  0  0  0  0  0  0
    1.6437   -0.4021   -0.0000 C   0  0  0  0  0  0  0  0  0  0  0  0
   -0.5913    5.2268   -0.0000 Cl  0  0  0  0  0  0  0  0  0  0  0  0
    5.3450    0.6149   -0.0000 C   0  0  0  0  0  0  0  0  0  0  0  0
    5.0376   -0.8514   -0.0000 C   0  0  0  0  0  0  0  0  0  0  0  0
    1.6319   -1.8920   -0.0000 N   0  0  0  0  0  0  0  0  0  0  0  0
    6.7049    1.2417   -0.0000 C   0  0  0  0  0  0  0  0  0  0  0  0
    0.4021   -2.7671   -0.0000 C   0  0  0  0  0  0  0  0  0  0  0  0
    2.8381   -2.7671   -0.0000 C   0  0  0  0  0  0  0  0  0  0  0  0
    6.8468    2.7435   -0.0000 O   0  0  0  0  0  0  0  0  0  0  0  0
    0.8514   -4.1861   -0.0000 N   0  0  0  0  0  0  0  0  0  0  0  0
    2.3651   -4.1861   -0.0000 C   0  0  0  0  0  0  0  0  0  0  0  0
    8.2067    3.3702   -0.0000 C   0  0  0  0  0  0  0  0  0  0  0  0
    8.3486    4.8720   -0.0000 C   0  0  0  0  0  0  0  0  0  0  0  0
    9.4129    2.4951   -0.0000 C   0  0  0  0  0  0  0  0  0  0  0  0
    9.7085    5.4987   -0.0000 C   0  0  0  0  0  0  0  0  0  0  0  0
   10.7728    3.1219   -0.0000 C   0  0  0  0  0  0  0  0  0  0  0  0
   10.9147    4.6237   -0.0000 C   0  0  0  0  0  0  0  0  0  0  0  0
   12.2746    5.2504   -0.0000 N   0  0  0  0  0  0  0  0  0  0  0  0
   13.4808    4.3753   -0.0000 C   0  0  0  0  0  0  0  0  0  0  0  0
   12.4165    6.7522   -0.0000 C   0  0  0  0  0  0  0  0  0  0  0  0
   14.8407    5.0021   -0.0000 C   0  0  0  0  0  0  0  0  0  0  0  0
   13.7764    7.3790   -0.0000 C   0  0  0  0  0  0  0  0  0  0  0  0
   14.9826    6.5039   -0.0000 N   0  0  0  0  0  0  0  0  0  0  0  0
   16.3425    7.1306   -0.0000 C   0  0  0  0  0  0  0  0  0  0  0  0
   16.4844    8.6324   -0.0000 O   0  0  0  0  0  0  0  0  0  0  0  0
   17.5487    6.2556   -0.0000 C   0  0  0  0  0  0  0  0  0  0  0  0
  1  2  1  0
  2  3  2  0
  2  4  1  0
  3  5  1  0
  3  6  1  0
  4  7  2  0
  5  8  2  0
  6  9  1  0
  6 10  1  0
  6 11  1  0
  7 12  1  0
  9 13  1  0
 10 14  1  0
 11 15  1  0
 13 16  1  0
 15 17  1  0
 15 18  1  0
 16 19  1  0
 17 20  2  0
 18 21  2  0
 19 22  1  0
 22 23  2  0
 22 24  1  0
 23 25  1  0
 24 26  2  0
 25 27  2  0
 27 28  1  0
 28 29  1  0
 28 30  1  0
 29 31  1  0
 30 32  1  0
 31 33  1  0
 33 34  1  0
 34 35  2  0
 34 36  1  0
  7  8  1  0
 13 14  1  0
 20 21  1  0
 26 27  1  0
 32 33  1  0
M  END
>  <MolRegNo>  (1) 
255904

>  <m>  (1) 
=

>  <Value>  (1) 
65000

>  <Unit>  (1) 
nM

>  <Type>  (1) 
Ki

>  <pValue>  (1) 
4.19

>  <Ligand Efficiency>  (1) 
0.16

>  <Binding Efficiency>  (1) 
7.88

>  <Surface Efficiency>  (1) 
6.06

>  <Assay Index>  (1) 
50795

>  <Assay Category>  (1) 


>  <Assay Organism>  (1) 


>  <Target ID>  (1) 
65

>  <Target Name>  (1) 
Cytochrome P450 19A1

>  <Target Organism>  (1) 
Homo sapiens

>  <Target Description>  (1) 
Target is a single protein chain

>  <Sequence Accession>  (1) 
P11511

>  <Reference>  (1) 
J Med Chem 33 (11), 2933-2942 (1990)

>  <Pubmed ID>  (1) 
2231592

>  <DOI>  (1) 
10.1021/jm00173a001

$$$$
