4wnv_ligand_141
     RDKit          2D

 15 16  0  0  0  0  0  0  0  0999 V2000
    0.0000   -0.0000   -0.0000 O   0  0  0  0  0  0  0  0  0  0  0  0
   -1.4048   -0.6176   -0.0000 C   0  0  0  0  0  0  0  0  0  0  0  0
    1.0173   -1.1384   -0.0000 C   0  0  0  0  0  0  0  0  0  0  0  0
   -2.7491    0.1695   -0.0000 C   0  0  0  0  0  0  0  0  0  0  0  0
   -1.2837   -2.1194   -0.0000 C   0  0  0  0  0  0  0  0  0  0  0  0
    0.2301   -2.4585   -0.0000 C   0  0  0  0  0  0  0  0  0  0  0  0
    2.5311   -0.9689   -0.0000 C   0  0  0  0  0  0  0  0  0  0  0  0
   -4.0934   -0.5934   -0.0000 C   0  0  0  0  0  0  0  0  0  0  0  0
   -2.7612    1.7197   -0.0000 C   0  0  0  0  0  0  0  0  0  0  0  0
    3.4152   -2.2041   -0.0000 N   0  0  0  0  0  0  0  0  0  0  0  0
   -5.4377    0.1817   -0.0000 N   0  0  0  0  0  0  0  0  0  0  0  0
   -4.1055    2.4948   -0.0000 C   0  0  0  0  0  0  0  0  0  0  0  0
    4.6263   -2.0709   -0.0000 C   0  0  0  0  0  0  0  0  0  0  0  0
    2.8945   -3.3183   -0.0000 C   0  0  0  0  0  0  0  0  0  0  0  0
   -5.4498    1.7318   -0.0000 C   0  0  0  0  0  0  0  0  0  0  0  0
  1  2  1  0
  1  3  1  0
  2  4  1  0
  2  5  2  0
  3  6  2  0
  3  7  1  0
  4  8  2  0
  4  9  1  0
  7 10  1  0
  8 11  1  0
  9 12  2  0
 10 13  1  0
 10 14  1  0
 11 15  2  0
  5  6  1  0
 12 15  1  0
M  END
>  <MolRegNo>  (1) 
299731

>  <m>  (1) 
=

>  <Value>  (1) 
127000

>  <Unit>  (1) 
nM

>  <Type>  (1) 
Ki

>  <pValue>  (1) 
0

>  <Ligand Efficiency>  (1) 
0

>  <Binding Efficiency>  (1) 
0

>  <Surface Efficiency>  (1) 
0

>  <Assay Index>  (1) 
269558

>  <Assay Category>  (1) 


>  <Assay Organism>  (1) 
Homo sapiens

>  <Target ID>  (1) 
11365

>  <Target Name>  (1) 
Cytochrome P450 2D6

>  <Target Organism>  (1) 
Homo sapiens

>  <Target Description>  (1) 
Target is a single protein chain

>  <Sequence Accession>  (1) 
P10635

>  <Reference>  (1) 
J Med Chem 49 (24), 6987-7001 (2006)

>  <Pubmed ID>  (1) 
17125252

>  <DOI>  (1) 
10.1021/jm060519r

$$$$
