4wnv_ligand_120
     RDKit          2D

 19 21  0  0  0  0  0  0  0  0999 V2000
    0.0000   -0.0000   -0.0000 O   0  0  0  0  0  0  0  0  0  0  0  0
    1.2821    0.7598   -0.0000 C   0  0  0  0  0  0  0  0  0  0  0  0
    2.5642    0.0237   -0.0000 C   0  0  0  0  0  0  0  0  0  0  0  0
    1.2702    2.2793   -0.0000 C   0  0  0  0  0  0  0  0  0  0  0  0
    3.8463    0.7835   -0.0000 C   0  0  0  0  0  0  0  0  0  0  0  0
    2.5523    3.0390   -0.0000 C   0  0  0  0  0  0  0  0  0  0  0  0
    3.8463    2.3030   -0.0000 C   0  0  0  0  0  0  0  0  0  0  0  0
    5.1284    0.0475   -0.0000 C   0  0  0  0  0  0  0  0  0  0  0  0
    5.1284    3.0628   -0.0000 C   0  0  0  0  0  0  0  0  0  0  0  0
    3.8226    3.8107   -0.0000 C   0  0  0  0  0  0  0  0  0  0  0  0
    6.4224    0.8072   -0.0000 C   0  0  0  0  0  0  0  0  0  0  0  0
    6.4105    2.3149   -0.0000 C   0  0  0  0  0  0  0  0  0  0  0  0
    5.1165    4.5823   -0.0000 C   0  0  0  0  0  0  0  0  0  0  0  0
    7.6926    3.0747   -0.0000 C   0  0  0  0  0  0  0  0  0  0  0  0
    6.4224    5.3421   -0.0000 C   0  0  0  0  0  0  0  0  0  0  0  0
    7.7045    4.5823   -0.0000 C   0  0  0  0  0  0  0  0  0  0  0  0
    9.1409    5.0453   -0.0000 C   0  0  0  0  0  0  0  0  0  0  0  0
    7.6926    6.1018   -0.0000 C   0  0  0  0  0  0  0  0  0  0  0  0
    9.4614    6.5173   -0.0000 O   0  0  0  0  0  0  0  0  0  0  0  0
  1  2  2  0
  2  3  1  0
  2  4  1  0
  3  5  2  0
  4  6  2  0
  5  7  1  0
  5  8  1  0
  7  9  1  0
  7 10  1  0
  8 11  1  0
  9 12  1  0
  9 13  1  0
 12 14  1  0
 13 15  1  0
 14 16  1  0
 16 17  1  0
 16 18  1  0
 17 19  2  0
  6  7  1  0
 11 12  1  0
 15 16  1  0
M  END
>  <MolRegNo>  (1) 
264588

>  <m>  (1) 
=

>  <Value>  (1) 
3980

>  <Unit>  (1) 
nM

>  <Type>  (1) 
Ki

>  <pValue>  (1) 
5.4

>  <Ligand Efficiency>  (1) 
0.39

>  <Binding Efficiency>  (1) 
20.9

>  <Surface Efficiency>  (1) 
15.82

>  <Assay Index>  (1) 
50938

>  <Assay Category>  (1) 


>  <Assay Organism>  (1) 
Homo sapiens

>  <Target ID>  (1) 
65

>  <Target Name>  (1) 
Cytochrome P450 19A1

>  <Target Organism>  (1) 
Homo sapiens

>  <Target Description>  (1) 
Target is a single protein chain

>  <Sequence Accession>  (1) 
P11511

>  <Reference>  (1) 
J Med Chem 32 (3), 651-658 (1989)

>  <Pubmed ID>  (1) 
2918514

>  <DOI>  (1) 
10.1021/jm00123a026

$$$$
