4wnv_ligand_17
     RDKit          2D

 40 43  0  0  0  0  0  0  0  0999 V2000
    0.0000   -0.0000   -0.0000 F   0  0  0  0  0  0  0  0  0  0  0  0
    1.3007   -0.7518   -0.0000 C   0  0  0  0  0  0  0  0  0  0  0  0
    2.0406    0.5728   -0.0000 F   0  0  0  0  0  0  0  0  0  0  0  0
    0.5251   -2.0525   -0.0000 F   0  0  0  0  0  0  0  0  0  0  0  0
    2.6014   -1.5036   -0.0000 C   0  0  0  0  0  0  0  0  0  0  0  0
    2.5895   -2.9952   -0.0000 C   0  0  0  0  0  0  0  0  0  0  0  0
    3.9022   -0.7399   -0.0000 C   0  0  0  0  0  0  0  0  0  0  0  0
    3.8783   -3.7351   -0.0000 C   0  0  0  0  0  0  0  0  0  0  0  0
    5.1909   -1.4797   -0.0000 C   0  0  0  0  0  0  0  0  0  0  0  0
    5.1790   -2.9714   -0.0000 C   0  0  0  0  0  0  0  0  0  0  0  0
    6.4678   -3.7112   -0.0000 C   0  0  0  0  0  0  0  0  0  0  0  0
    6.4559   -5.2029   -0.0000 N   0  0  0  0  0  0  0  0  0  0  0  0
    7.7566   -2.9475   -0.0000 C   0  0  0  0  0  0  0  0  0  0  0  0
    7.7446   -5.9427   -0.0000 C   0  0  0  0  0  0  0  0  0  0  0  0
    5.1432   -5.9427   -0.0000 C   0  0  0  0  0  0  0  0  0  0  0  0
    7.7446   -1.4320   -0.0000 O   0  0  0  0  0  0  0  0  0  0  0  0
    9.0454   -3.6874   -0.0000 N   0  0  0  0  0  0  0  0  0  0  0  0
    7.7327   -7.4463   -0.0000 C   0  0  0  0  0  0  0  0  0  0  0  0
    5.1313   -7.4463   -0.0000 C   0  0  0  0  0  0  0  0  0  0  0  0
   10.3341   -2.9236   -0.0000 C   0  0  0  0  0  0  0  0  0  0  0  0
    6.4201   -8.1862   -0.0000 N   0  0  0  0  0  0  0  0  0  0  0  0
   10.3222   -1.4081   -0.0000 C   0  0  0  0  0  0  0  0  0  0  0  0
    6.4081   -9.6778   -0.0000 C   0  0  0  0  0  0  0  0  0  0  0  0
    9.0096   -0.6444   -0.0000 C   0  0  0  0  0  0  0  0  0  0  0  0
   11.6229   -0.6444   -0.0000 C   0  0  0  0  0  0  0  0  0  0  0  0
    7.6969  -10.4177   -0.0000 C   0  0  0  0  0  0  0  0  0  0  0  0
    8.9976    0.8711   -0.0000 C   0  0  0  0  0  0  0  0  0  0  0  0
   11.6110    0.8711   -0.0000 C   0  0  0  0  0  0  0  0  0  0  0  0
    8.9857   -9.6540   -0.0000 O   0  0  0  0  0  0  0  0  0  0  0  0
    7.6850  -11.9093   -0.0000 C   0  0  0  0  0  0  0  0  0  0  0  0
   10.2864    1.6468   -0.0000 C   0  0  0  0  0  0  0  0  0  0  0  0
    8.9738  -12.6492   -0.0000 O   0  0  0  0  0  0  0  0  0  0  0  0
    8.9618  -14.1408   -0.0000 C   0  0  0  0  0  0  0  0  0  0  0  0
    7.6492  -14.8807   -0.0000 C   0  0  0  0  0  0  0  0  0  0  0  0
   10.2506  -14.8807   -0.0000 C   0  0  0  0  0  0  0  0  0  0  0  0
    7.6372  -16.3843   -0.0000 C   0  0  0  0  0  0  0  0  0  0  0  0
   10.2387  -16.3843   -0.0000 C   0  0  0  0  0  0  0  0  0  0  0  0
    8.9260  -17.1241   -0.0000 C   0  0  0  0  0  0  0  0  0  0  0  0
    8.9260  -18.6158   -0.0000 O   0  0  0  0  0  0  0  0  0  0  0  0
   10.2148  -19.3437   -0.0000 C   0  0  0  0  0  0  0  0  0  0  0  0
  1  2  1  0
  2  3  1  0
  2  4  1  0
  2  5  1  0
  5  6  2  0
  5  7  1  0
  6  8  1  0
  7  9  2  0
  8 10  2  0
 10 11  1  0
 11 12  1  0
 11 13  1  0
 12 14  1  0
 12 15  1  0
 13 16  2  0
 13 17  1  0
 14 18  1  0
 15 19  1  0
 17 20  1  0
 18 21  1  0
 20 22  1  0
 21 23  1  0
 22 24  2  0
 22 25  1  0
 23 26  1  0
 24 27  1  0
 25 28  2  0
 26 29  1  0
 26 30  1  0
 27 31  2  0
 30 32  1  0
 32 33  1  0
 33 34  2  0
 33 35  1  0
 34 36  1  0
 35 37  2  0
 36 38  2  0
 38 39  1  0
 39 40  1  0
  9 10  1  0
 19 21  1  0
 28 31  1  0
 37 38  1  0
M  END
>  <MolRegNo>  (1) 
97850

>  <m>  (1) 
=

>  <Value>  (1) 
2000

>  <Unit>  (1) 
nM

>  <Type>  (1) 
Ki

>  <pValue>  (1) 
5.7

>  <Ligand Efficiency>  (1) 
0

>  <Binding Efficiency>  (1) 
0

>  <Surface Efficiency>  (1) 
0

>  <Assay Index>  (1) 
51650

>  <Assay Category>  (1) 


>  <Assay Organism>  (1) 


>  <Target ID>  (1) 
11365

>  <Target Name>  (1) 
Cytochrome P450 2D6

>  <Target Organism>  (1) 
Homo sapiens

>  <Target Description>  (1) 
Target is a single protein chain

>  <Sequence Accession>  (1) 
P10635

>  <Reference>  (1) 
Bioorg Med Chem Lett 14 (9), 2025-2030 (2004)

>  <Pubmed ID>  (1) 
15080972

>  <DOI>  (1) 
10.1016/j.bmcl.2004.02.078

$$$$
