4wnv_ligand_33
     RDKit          2D

 16 17  0  0  0  0  0  0  0  0999 V2000
    0.0000   -0.0000   -0.0000 O   0  0  0  0  0  0  0  0  0  0  0  0
   -1.4488    0.0131   -0.0000 C   0  0  0  0  0  0  0  0  0  0  0  0
   -2.3102    1.3052   -0.0000 N   0  0  0  0  0  0  0  0  0  0  0  0
   -2.3102   -1.1877   -0.0000 C   0  0  0  0  0  0  0  0  0  0  0  0
   -3.9808    1.3182   -0.0000 C   0  0  0  0  0  0  0  0  0  0  0  0
   -2.3102   -2.4538   -0.0000 C   0  0  0  0  0  0  0  0  0  0  0  0
   -3.9286   -1.1747   -0.0000 C   0  0  0  0  0  0  0  0  0  0  0  0
   -0.7962   -1.7881   -0.0000 C   0  0  0  0  0  0  0  0  0  0  0  0
   -4.6987    2.3102   -0.0000 O   0  0  0  0  0  0  0  0  0  0  0  0
   -4.7509    0.1697   -0.0000 C   0  0  0  0  0  0  0  0  0  0  0  0
   -3.6806   -3.2499   -0.0000 C   0  0  0  0  0  0  0  0  0  0  0  0
   -1.0050   -3.1455   -0.0000 C   0  0  0  0  0  0  0  0  0  0  0  0
    0.5351   -1.2530   -0.0000 C   0  0  0  0  0  0  0  0  0  0  0  0
   -3.6806   -4.7509   -0.0000 C   0  0  0  0  0  0  0  0  0  0  0  0
   -1.0181   -4.7248   -0.0000 C   0  0  0  0  0  0  0  0  0  0  0  0
   -2.3494   -5.5079   -0.0000 N   0  0  0  0  0  0  0  0  0  0  0  0
  1  2  2  0
  2  3  1  0
  2  4  1  0
  3  5  1  0
  4  6  1  0
  4  7  1  0
  4  8  1  0
  5  9  2  0
  5 10  1  0
  6 11  2  0
  6 12  1  0
  8 13  1  0
 11 14  1  0
 12 15  2  0
 14 16  2  0
  7 10  1  0
 15 16  1  0
M  END
>  <MolRegNo>  (1) 
57436

>  <m>  (1) 
=

>  <Value>  (1) 
1100

>  <Unit>  (1) 
nM

>  <Type>  (1) 
Ki

>  <pValue>  (1) 
5.96

>  <Ligand Efficiency>  (1) 
0.51

>  <Binding Efficiency>  (1) 
27.3

>  <Surface Efficiency>  (1) 
10.09

>  <Assay Index>  (1) 
51105

>  <Assay Category>  (1) 


>  <Assay Organism>  (1) 
Homo sapiens

>  <Target ID>  (1) 
65

>  <Target Name>  (1) 
Cytochrome P450 19A1

>  <Target Organism>  (1) 
Homo sapiens

>  <Target Description>  (1) 
Target is a single protein chain

>  <Sequence Accession>  (1) 
P11511

>  <Reference>  (1) 
J Med Chem 28 (2), 200-204 (1985)

>  <Pubmed ID>  (1) 
3968684

>  <DOI>  (1) 
10.1021/jm00380a009

$$$$
