4wnv_ligand_35
     RDKit          2D

 23 26  0  0  1  0  0  0  0  0999 V2000
    0.0000   -0.0000   -0.0000 O   0  0  0  0  0  0  0  0  0  0  0  0
    1.2714    0.8313   -0.0000 C   0  0  0  0  0  0  0  0  0  0  0  0
    2.5550    0.0611   -0.0000 C   0  0  0  0  0  0  0  0  0  0  0  0
    1.2592    2.3716   -0.0000 C   0  0  0  0  0  0  0  0  0  0  0  0
    3.8020    0.8802   -0.0000 C   0  0  0  0  0  0  0  0  0  0  0  0
    2.5428    3.1663   -0.0000 C   0  0  0  0  0  0  0  0  0  0  0  0
    3.8020    2.3961   -0.0000 C   0  0  0  0  0  0  0  0  0  0  0  0
    5.1100    0.1345   -0.0000 C   0  0  0  0  0  0  0  0  0  0  0  0
    5.0856    3.1907   -0.0000 C   0  0  0  0  0  0  0  0  0  0  0  0
    3.7897    3.9242   -0.0000 C   0  0  0  0  0  0  0  0  0  0  0  0
    6.4303    0.8802   -0.0000 C   0  0  0  0  0  0  0  0  0  0  0  0
    6.4059    2.4205   -0.0000 C   0  0  0  0  0  0  0  0  0  0  0  0
    5.0733    4.6821   -0.0000 C   0  0  0  0  0  0  0  0  0  0  0  0
    2.7262    4.4988   -0.0000 C   0  0  0  0  0  0  0  0  0  0  0  0
    7.6773    3.2152   -0.0000 C   0  0  0  0  0  0  0  0  0  0  0  0
    6.3936    5.4768   -0.0000 C   0  0  0  0  0  0  0  0  0  0  0  0
    1.3325    5.2445   -0.0000 C   0  0  0  0  0  0  0  0  0  0  0  0
    7.6528    4.7799   -0.0000 C   0  0  0  0  0  0  0  0  0  0  0  0
    9.0953    2.7751   -0.0000 C   0  0  0  0  0  0  0  0  0  0  0  0
    9.0464    5.2200   -0.0000 C   0  0  0  0  0  0  0  0  0  0  0  0
    7.6161    6.2469   -0.0000 C   0  0  0  0  0  0  0  0  0  0  0  0
    9.9633    3.9731   -0.0000 C   0  0  0  0  0  0  0  0  0  0  0  0
    9.4865    6.7115   -0.0000 O   0  0  0  0  0  0  0  0  0  0  0  0
  1  2  2  0
  2  3  1  0
  2  4  1  0
  3  5  2  0
  4  6  1  0
  5  7  1  0
  5  8  1  0
  7  9  1  0
  7 10  1  1
  8 11  1  0
  9 12  1  0
  9 13  1  1
 10 14  1  0
 12 15  1  0
 13 16  1  0
 14 17  3  0
 15 18  1  0
 15 19  1  1
 18 20  1  0
 18 21  1  1
 19 22  1  0
 20 23  2  0
  6  7  1  0
 12 11  1  6
 16 18  1  0
 20 22  1  0
M  END
>  <MolRegNo>  (1) 
1377531

>  <m>  (1) 
=

>  <Value>  (1) 
4

>  <Unit>  (1) 
nM

>  <Type>  (1) 
Ki

>  <pValue>  (1) 
8.4

>  <Ligand Efficiency>  (1) 
0.5

>  <Binding Efficiency>  (1) 
27.05

>  <Surface Efficiency>  (1) 
24.6

>  <Assay Index>  (1) 
50931

>  <Assay Category>  (1) 


>  <Assay Organism>  (1) 
Homo sapiens

>  <Target ID>  (1) 
65

>  <Target Name>  (1) 
Cytochrome P450 19A1

>  <Target Organism>  (1) 
Homo sapiens

>  <Target Description>  (1) 
Target is a single protein chain

>  <Sequence Accession>  (1) 
P11511

>  <Reference>  (1) 
J Med Chem 32 (10), 2231-2239 (1989)

>  <Pubmed ID>  (1) 
2677377

>  <DOI>  (1) 
10.1021/jm00130a001

$$$$
