4wnv_ligand_98
     RDKit          2D

 23 26  0  0  1  0  0  0  0  0999 V2000
    0.0000   -0.0000   -0.0000 O   0  0  0  0  0  0  0  0  0  0  0  0
    1.2884    0.7694   -0.0000 C   0  0  0  0  0  0  0  0  0  0  0  0
    2.5767    0.0358   -0.0000 C   0  0  0  0  0  0  0  0  0  0  0  0
    1.2705    2.2904   -0.0000 C   0  0  0  0  0  0  0  0  0  0  0  0
    3.8472    0.8052   -0.0000 C   0  0  0  0  0  0  0  0  0  0  0  0
    2.5588    3.0598   -0.0000 C   0  0  0  0  0  0  0  0  0  0  0  0
   -0.0537    3.0598   -0.0000 C   0  0  0  0  0  0  0  0  0  0  0  0
   -0.0537    1.5568   -0.0000 C   0  0  0  0  0  0  0  0  0  0  0  0
    3.8293    2.3262   -0.0000 C   0  0  0  0  0  0  0  0  0  0  0  0
    5.1355    0.0716   -0.0000 C   0  0  0  0  0  0  0  0  0  0  0  0
    5.1176    3.0956   -0.0000 C   0  0  0  0  0  0  0  0  0  0  0  0
    3.8114    3.8472   -0.0000 C   0  0  0  0  0  0  0  0  0  0  0  0
    6.4239    0.8410   -0.0000 C   0  0  0  0  0  0  0  0  0  0  0  0
    6.3881    2.3441   -0.0000 C   0  0  0  0  0  0  0  0  0  0  0  0
    5.1176    4.6166   -0.0000 C   0  0  0  0  0  0  0  0  0  0  0  0
    7.6943    3.2746   -0.0000 C   0  0  0  0  0  0  0  0  0  0  0  0
    6.4060    5.3681   -0.0000 C   0  0  0  0  0  0  0  0  0  0  0  0
    7.6764    4.5987   -0.0000 C   0  0  0  0  0  0  0  0  0  0  0  0
    9.9489    3.2925   -0.0000 C   0  0  0  0  0  0  0  0  0  0  0  0
    8.8037    5.2787   -0.0000 C   0  0  0  0  0  0  0  0  0  0  0  0
    7.6585    6.1197   -0.0000 C   0  0  0  0  0  0  0  0  0  0  0  0
    9.9310    4.6166   -0.0000 C   0  0  0  0  0  0  0  0  0  0  0  0
    8.7858    6.6207   -0.0000 O   0  0  0  0  0  0  0  0  0  0  0  0
  1  2  2  0
  2  3  1  0
  2  4  1  0
  3  5  2  0
  4  6  1  0
  4  7  1  0
  4  8  1  0
  5  9  1  0
  5 10  1  0
  9 11  1  0
  9 12  1  1
 10 13  1  0
 11 14  1  0
 11 15  1  0
 14 16  1  0
 15 17  1  0
 16 18  1  0
 16 19  1  0
 18 20  1  0
 18 21  1  1
 19 22  1  0
 20 23  2  0
  6  9  1  0
 13 14  1  0
 17 18  1  0
 20 22  1  0
M  END
>  <MolRegNo>  (1) 
163569

>  <m>  (1) 
=

>  <Value>  (1) 
2.3

>  <Unit>  (1) 
nM

>  <Type>  (1) 
Ki

>  <pValue>  (1) 
8.64

>  <Ligand Efficiency>  (1) 
0.51

>  <Binding Efficiency>  (1) 
27.47

>  <Surface Efficiency>  (1) 
25.3

>  <Assay Index>  (1) 
50795

>  <Assay Category>  (1) 


>  <Assay Organism>  (1) 


>  <Target ID>  (1) 
65

>  <Target Name>  (1) 
Cytochrome P450 19A1

>  <Target Organism>  (1) 
Homo sapiens

>  <Target Description>  (1) 
Target is a single protein chain

>  <Sequence Accession>  (1) 
P11511

>  <Reference>  (1) 
J Med Chem 33 (11), 2933-2942 (1990)

>  <Pubmed ID>  (1) 
2231592

>  <DOI>  (1) 
10.1021/jm00173a001

$$$$
