4wnv_ligand_384
     RDKit          2D

 21 23  0  0  0  0  0  0  0  0999 V2000
    0.0000   -0.0000   -0.0000 Br  0  0  0  0  0  0  0  0  0  0  0  0
    1.2880    0.7632   -0.0000 C   0  0  0  0  0  0  0  0  0  0  0  0
    1.2761    2.2778   -0.0000 C   0  0  0  0  0  0  0  0  0  0  0  0
    2.5879    0.0239   -0.0000 C   0  0  0  0  0  0  0  0  0  0  0  0
    2.5640    3.0411   -0.0000 C   0  0  0  0  0  0  0  0  0  0  0  0
    3.8759    0.7990   -0.0000 C   0  0  0  0  0  0  0  0  0  0  0  0
    3.8520    2.3017   -0.0000 C   0  0  0  0  0  0  0  0  0  0  0  0
    5.1400    3.0649   -0.0000 C   0  0  0  0  0  0  0  0  0  0  0  0
    5.1281    4.5795   -0.0000 C   0  0  0  0  0  0  0  0  0  0  0  0
    6.4280    2.3255   -0.0000 C   0  0  0  0  0  0  0  0  0  0  0  0
    6.4161    5.3427   -0.0000 C   0  0  0  0  0  0  0  0  0  0  0  0
    6.4161    0.8348   -0.0000 N   0  0  0  0  0  0  0  0  0  0  0  0
    7.7040    4.6033   -0.0000 C   0  0  0  0  0  0  0  0  0  0  0  0
    6.4041    6.8692   -0.0000 C   0  0  0  0  0  0  0  0  0  0  0  0
    7.6325   -0.0358   -0.0000 N   0  0  0  0  0  0  0  0  0  0  0  0
    5.1996   -0.0358   -0.0000 C   0  0  0  0  0  0  0  0  0  0  0  0
    9.0039    5.3666   -0.0000 C   0  0  0  0  0  0  0  0  0  0  0  0
    7.6921    7.6325   -0.0000 C   0  0  0  0  0  0  0  0  0  0  0  0
    7.1555   -1.4549   -0.0000 N   0  0  0  0  0  0  0  0  0  0  0  0
    5.6528   -1.4549   -0.0000 C   0  0  0  0  0  0  0  0  0  0  0  0
    8.9920    6.8931   -0.0000 C   0  0  0  0  0  0  0  0  0  0  0  0
  1  2  1  0
  2  3  2  0
  2  4  1  0
  3  5  1  0
  4  6  2  0
  5  7  2  0
  7  8  1  0
  8  9  2  0
  8 10  1  0
  9 11  1  0
 10 12  1  0
 11 13  2  0
 11 14  1  0
 12 15  1  0
 12 16  1  0
 13 17  1  0
 14 18  2  0
 15 19  2  0
 16 20  2  0
 17 21  2  0
  6  7  1  0
 18 21  1  0
 19 20  1  0
M  END
>  <MolRegNo>  (1) 
2375942

>  <m>  (1) 
=

>  <Value>  (1) 
74

>  <Unit>  (1) 
nM

>  <Type>  (1) 
Ki

>  <pValue>  (1) 
7.13

>  <Ligand Efficiency>  (1) 
0.46

>  <Binding Efficiency>  (1) 
20.96

>  <Surface Efficiency>  (1) 
23.22

>  <Assay Index>  (1) 
1255696

>  <Assay Category>  (1) 


>  <Assay Organism>  (1) 
Homo sapiens

>  <Target ID>  (1) 
65

>  <Target Name>  (1) 
Cytochrome P450 19A1

>  <Target Organism>  (1) 
Homo sapiens

>  <Target Description>  (1) 
Target is a single protein chain

>  <Sequence Accession>  (1) 
P11511

>  <Reference>  (1) 
Bioorg Med Chem Lett 29 (11), 1395-1398 (2019)

>  <Pubmed ID>  (1) 
30952594

>  <DOI>  (1) 
10.1016/j.bmcl.2019.03.033

$$$$
