4wnv_ligand_112
     RDKit          2D

 29 33  0  0  0  0  0  0  0  0999 V2000
    0.0000   -0.0000   -0.0000 O   0  0  0  0  0  0  0  0  0  0  0  0
    1.2584    0.7790   -0.0000 C   0  0  0  0  0  0  0  0  0  0  0  0
    2.4968    0.0599   -0.0000 C   0  0  0  0  0  0  0  0  0  0  0  0
    1.2384    2.2571   -0.0000 C   0  0  0  0  0  0  0  0  0  0  0  0
    3.7551    0.8189   -0.0000 C   0  0  0  0  0  0  0  0  0  0  0  0
    2.4768    3.0361   -0.0000 C   0  0  0  0  0  0  0  0  0  0  0  0
    5.0135    0.0799   -0.0000 C   0  0  0  0  0  0  0  0  0  0  0  0
    3.7352    2.2970   -0.0000 C   0  0  0  0  0  0  0  0  0  0  0  0
    6.2719    0.8189   -0.0000 C   0  0  0  0  0  0  0  0  0  0  0  0
    4.9935    3.0560   -0.0000 C   0  0  0  0  0  0  0  0  0  0  0  0
    3.7152    3.7951   -0.0000 C   0  0  0  0  0  0  0  0  0  0  0  0
    6.2519    2.3170   -0.0000 C   0  0  0  0  0  0  0  0  0  0  0  0
    7.5302    0.0999   -0.0000 C   0  0  0  0  0  0  0  0  0  0  0  0
    4.9935    4.5541   -0.0000 C   0  0  0  0  0  0  0  0  0  0  0  0
    7.5102    3.0560   -0.0000 C   0  0  0  0  0  0  0  0  0  0  0  0
    7.5102   -1.3582   -0.0000 C   0  0  0  0  0  0  0  0  0  0  0  0
    6.2719    5.2931   -0.0000 C   0  0  0  0  0  0  0  0  0  0  0  0
    7.5102    4.5341   -0.0000 C   0  0  0  0  0  0  0  0  0  0  0  0
   10.0270    3.0361   -0.0000 C   0  0  0  0  0  0  0  0  0  0  0  0
    8.7686   -2.0773   -0.0000 C   0  0  0  0  0  0  0  0  0  0  0  0
    8.7686    5.2732   -0.0000 C   0  0  0  0  0  0  0  0  0  0  0  0
    7.4903    6.0322   -0.0000 C   0  0  0  0  0  0  0  0  0  0  0  0
   10.0270    4.5141   -0.0000 C   0  0  0  0  0  0  0  0  0  0  0  0
   10.0270   -1.3183   -0.0000 C   0  0  0  0  0  0  0  0  0  0  0  0
    8.7486   -3.5354   -0.0000 C   0  0  0  0  0  0  0  0  0  0  0  0
    8.7686    6.7712   -0.0000 O   0  0  0  0  0  0  0  0  0  0  0  0
   11.2853   -2.0374   -0.0000 C   0  0  0  0  0  0  0  0  0  0  0  0
   10.0070   -4.2545   -0.0000 C   0  0  0  0  0  0  0  0  0  0  0  0
   11.2654   -3.4955   -0.0000 C   0  0  0  0  0  0  0  0  0  0  0  0
  1  2  2  0
  2  3  1  0
  2  4  1  0
  3  5  2  0
  4  6  1  0
  5  7  1  0
  5  8  1  0
  7  9  2  0
  8 10  1  0
  8 11  1  0
  9 12  1  0
  9 13  1  0
 10 14  1  0
 12 15  1  0
 13 16  1  0
 14 17  1  0
 15 18  1  0
 15 19  1  0
 16 20  1  0
 18 21  1  0
 18 22  1  0
 19 23  1  0
 20 24  2  0
 20 25  1  0
 21 26  2  0
 24 27  1  0
 25 28  2  0
 27 29  2  0
  6  8  1  0
 10 12  1  0
 17 18  1  0
 21 23  1  0
 28 29  1  0
M  END
>  <MolRegNo>  (1) 
5481

>  <m>  (1) 
=

>  <Value>  (1) 
174

>  <Unit>  (1) 
nM

>  <Type>  (1) 
Ki

>  <pValue>  (1) 
6.76

>  <Ligand Efficiency>  (1) 
0.32

>  <Binding Efficiency>  (1) 
17.4

>  <Surface Efficiency>  (1) 
19.8

>  <Assay Index>  (1) 
50932

>  <Assay Category>  (1) 


>  <Assay Organism>  (1) 
Homo sapiens

>  <Target ID>  (1) 
65

>  <Target Name>  (1) 
Cytochrome P450 19A1

>  <Target Organism>  (1) 
Homo sapiens

>  <Target Description>  (1) 
Target is a single protein chain

>  <Sequence Accession>  (1) 
P11511

>  <Reference>  (1) 
J Med Chem 33 (1), 101-105 (1990)

>  <Pubmed ID>  (1) 
2296006

>  <DOI>  (1) 
10.1021/jm00163a017

$$$$
