4wnv_ligand_233
     RDKit          2D

 24 27  0  0  0  0  0  0  0  0999 V2000
    0.0000   -0.0000   -0.0000 O   0  0  0  0  0  0  0  0  0  0  0  0
    1.0689    0.6372   -0.0000 C   0  0  0  0  0  0  0  0  0  0  0  0
    2.3434   -0.1028   -0.0000 C   0  0  0  0  0  0  0  0  0  0  0  0
    1.0484    2.1584   -0.0000 C   0  0  0  0  0  0  0  0  0  0  0  0
    3.6179    0.6989   -0.0000 C   0  0  0  0  0  0  0  0  0  0  0  0
    2.3023    2.9190   -0.0000 C   0  0  0  0  0  0  0  0  0  0  0  0
    4.9129   -0.0411   -0.0000 C   0  0  0  0  0  0  0  0  0  0  0  0
    3.5973    2.2201   -0.0000 C   0  0  0  0  0  0  0  0  0  0  0  0
    6.1874    0.7606   -0.0000 C   0  0  0  0  0  0  0  0  0  0  0  0
    4.9129   -1.5828   -0.0000 C   0  0  0  0  0  0  0  0  0  0  0  0
    4.8718    2.9806   -0.0000 C   0  0  0  0  0  0  0  0  0  0  0  0
    3.5562    3.4945   -0.0000 C   0  0  0  0  0  0  0  0  0  0  0  0
    6.1463    2.2817   -0.0000 C   0  0  0  0  0  0  0  0  0  0  0  0
    6.2491   -2.3228   -0.0000 C   0  0  0  0  0  0  0  0  0  0  0  0
    4.8307    4.5223   -0.0000 C   0  0  0  0  0  0  0  0  0  0  0  0
    7.4208    3.0423   -0.0000 C   0  0  0  0  0  0  0  0  0  0  0  0
    6.2491   -3.5562   -0.0000 C   0  0  0  0  0  0  0  0  0  0  0  0
    6.1052    5.3035   -0.0000 C   0  0  0  0  0  0  0  0  0  0  0  0
    7.4002    4.5635   -0.0000 C   0  0  0  0  0  0  0  0  0  0  0  0
   10.0108    3.0423   -0.0000 C   0  0  0  0  0  0  0  0  0  0  0  0
    8.6747    5.3652   -0.0000 C   0  0  0  0  0  0  0  0  0  0  0  0
    7.3797    5.8379   -0.0000 C   0  0  0  0  0  0  0  0  0  0  0  0
    9.9903    4.6046   -0.0000 C   0  0  0  0  0  0  0  0  0  0  0  0
    8.6541    6.6396   -0.0000 O   0  0  0  0  0  0  0  0  0  0  0  0
  1  2  2  0
  2  3  1  0
  2  4  1  0
  3  5  2  0
  4  6  1  0
  5  7  1  0
  5  8  1  0
  7  9  2  0
  7 10  1  0
  8 11  1  0
  8 12  1  6
 13  9  1  1
 10 14  1  0
 11 15  1  6
 13 16  1  0
 14 17  1  0
 15 18  1  0
 16 19  1  0
 16 20  1  6
 19 21  1  0
 19 22  1  6
 20 23  1  0
 21 24  2  0
  6  8  1  0
 11 13  1  0
 18 19  1  0
 21 23  1  0
M  END
>  <MolRegNo>  (1) 
2057929

>  <m>  (1) 
=

>  <Value>  (1) 
17

>  <Unit>  (1) 
nM

>  <Type>  (1) 
Ki

>  <pValue>  (1) 
7.77

>  <Ligand Efficiency>  (1) 
0.44

>  <Binding Efficiency>  (1) 
23.8

>  <Surface Efficiency>  (1) 
22.76

>  <Assay Index>  (1) 
985353

>  <Assay Category>  (1) 


>  <Assay Organism>  (1) 
Homo sapiens

>  <Target ID>  (1) 
65

>  <Target Name>  (1) 
Cytochrome P450 19A1

>  <Target Organism>  (1) 
Homo sapiens

>  <Target Description>  (1) 
Target is a single protein chain

>  <Sequence Accession>  (1) 
P11511

>  <Reference>  (1) 


>  <Pubmed ID>  (1) 
26469743

>  <DOI>  (1) 
10.1016/j.ejmech.2015.09.038

$$$$
