4wnv_ligand_237
     RDKit          2D

 28 31  0  0  0  0  0  0  0  0999 V2000
    0.0000   -0.0000   -0.0000 O   0  0  0  0  0  0  0  0  0  0  0  0
    1.0658    0.6354   -0.0000 C   0  0  0  0  0  0  0  0  0  0  0  0
    2.3365   -0.1025   -0.0000 C   0  0  0  0  0  0  0  0  0  0  0  0
    1.0453    2.1520   -0.0000 C   0  0  0  0  0  0  0  0  0  0  0  0
    3.6072    0.6968   -0.0000 C   0  0  0  0  0  0  0  0  0  0  0  0
    2.2955    2.9103   -0.0000 C   0  0  0  0  0  0  0  0  0  0  0  0
    4.8984   -0.0410   -0.0000 C   0  0  0  0  0  0  0  0  0  0  0  0
    3.5867    2.2135   -0.0000 C   0  0  0  0  0  0  0  0  0  0  0  0
    6.1691    0.7583   -0.0000 C   0  0  0  0  0  0  0  0  0  0  0  0
    4.8984   -1.5781   -0.0000 C   0  0  0  0  0  0  0  0  0  0  0  0
    4.8574    2.9718   -0.0000 C   0  0  0  0  0  0  0  0  0  0  0  0
    3.5457    3.4842   -0.0000 C   0  0  0  0  0  0  0  0  0  0  0  0
    6.1281    2.2750   -0.0000 C   0  0  0  0  0  0  0  0  0  0  0  0
    6.2305   -2.3160   -0.0000 C   0  0  0  0  0  0  0  0  0  0  0  0
    4.8164    4.5089   -0.0000 C   0  0  0  0  0  0  0  0  0  0  0  0
    7.3988    3.0333   -0.0000 C   0  0  0  0  0  0  0  0  0  0  0  0
    6.2305   -3.8531   -0.0000 C   0  0  0  0  0  0  0  0  0  0  0  0
    6.0871    5.2878   -0.0000 C   0  0  0  0  0  0  0  0  0  0  0  0
    7.3783    4.5499   -0.0000 C   0  0  0  0  0  0  0  0  0  0  0  0
    9.9812    3.0333   -0.0000 C   0  0  0  0  0  0  0  0  0  0  0  0
    7.5627   -4.5909   -0.0000 C   0  0  0  0  0  0  0  0  0  0  0  0
    8.6490    5.3493   -0.0000 C   0  0  0  0  0  0  0  0  0  0  0  0
    7.3578    5.8206   -0.0000 C   0  0  0  0  0  0  0  0  0  0  0  0
    9.9607    4.5909   -0.0000 C   0  0  0  0  0  0  0  0  0  0  0  0
    7.5627   -6.1281   -0.0000 C   0  0  0  0  0  0  0  0  0  0  0  0
    8.6285    6.6200   -0.0000 O   0  0  0  0  0  0  0  0  0  0  0  0
    8.8949   -6.8659   -0.0000 C   0  0  0  0  0  0  0  0  0  0  0  0
    8.8949   -8.0956   -0.0000 C   0  0  0  0  0  0  0  0  0  0  0  0
  1  2  2  0
  2  3  1  0
  2  4  1  0
  3  5  2  0
  4  6  1  0
  5  7  1  0
  5  8  1  0
  7  9  2  0
  7 10  1  0
  8 11  1  0
  8 12  1  6
 13  9  1  1
 10 14  1  0
 11 15  1  6
 13 16  1  0
 14 17  1  0
 15 18  1  0
 16 19  1  0
 16 20  1  6
 17 21  1  0
 19 22  1  0
 19 23  1  6
 20 24  1  0
 21 25  1  0
 22 26  2  0
 25 27  1  0
 27 28  1  0
  6  8  1  0
 11 13  1  0
 18 19  1  0
 22 24  1  0
M  END
>  <MolRegNo>  (1) 
2057933

>  <m>  (1) 
=

>  <Value>  (1) 
17

>  <Unit>  (1) 
nM

>  <Type>  (1) 
Ki

>  <pValue>  (1) 
7.77

>  <Ligand Efficiency>  (1) 
0.38

>  <Binding Efficiency>  (1) 
20.31

>  <Surface Efficiency>  (1) 
22.76

>  <Assay Index>  (1) 
985353

>  <Assay Category>  (1) 


>  <Assay Organism>  (1) 
Homo sapiens

>  <Target ID>  (1) 
65

>  <Target Name>  (1) 
Cytochrome P450 19A1

>  <Target Organism>  (1) 
Homo sapiens

>  <Target Description>  (1) 
Target is a single protein chain

>  <Sequence Accession>  (1) 
P11511

>  <Reference>  (1) 


>  <Pubmed ID>  (1) 
26469743

>  <DOI>  (1) 
10.1016/j.ejmech.2015.09.038

$$$$
