4wnv_ligand_345
     RDKit          2D

 20 23  0  0  0  0  0  0  0  0999 V2000
    0.0000   -0.0000   -0.0000 O   0  0  0  0  0  0  0  0  0  0  0  0
    1.0560    0.6295   -0.0000 C   0  0  0  0  0  0  0  0  0  0  0  0
    2.3150   -0.1015   -0.0000 C   0  0  0  0  0  0  0  0  0  0  0  0
    1.0357    2.1323   -0.0000 C   0  0  0  0  0  0  0  0  0  0  0  0
    3.5741    0.6904   -0.0000 C   0  0  0  0  0  0  0  0  0  0  0  0
    2.2744    2.8836   -0.0000 C   0  0  0  0  0  0  0  0  0  0  0  0
    3.5538    2.1932   -0.0000 C   0  0  0  0  0  0  0  0  0  0  0  0
    4.8534   -0.0406   -0.0000 C   0  0  0  0  0  0  0  0  0  0  0  0
    4.8128    2.9445   -0.0000 C   0  0  0  0  0  0  0  0  0  0  0  0
    3.5131    3.4522   -0.0000 C   0  0  0  0  0  0  0  0  0  0  0  0
    6.1125    0.7514   -0.0000 C   0  0  0  0  0  0  0  0  0  0  0  0
    6.0719    2.2541   -0.0000 C   0  0  0  0  0  0  0  0  0  0  0  0
    4.7722    4.4676   -0.0000 C   0  0  0  0  0  0  0  0  0  0  0  0
    7.3309    3.0055   -0.0000 C   0  0  0  0  0  0  0  0  0  0  0  0
    6.0312    5.2393   -0.0000 C   0  0  0  0  0  0  0  0  0  0  0  0
    7.3106    4.5082   -0.0000 C   0  0  0  0  0  0  0  0  0  0  0  0
    9.8896    3.0055   -0.0000 C   0  0  0  0  0  0  0  0  0  0  0  0
    8.5696    5.3002   -0.0000 C   0  0  0  0  0  0  0  0  0  0  0  0
    7.2903    5.7672   -0.0000 C   0  0  0  0  0  0  0  0  0  0  0  0
    9.8693    4.5488   -0.0000 C   0  0  0  0  0  0  0  0  0  0  0  0
  1  2  2  0
  2  3  1  0
  2  4  1  0
  3  5  2  0
  4  6  2  0
  5  7  1  0
  5  8  1  0
  7  9  1  0
  7 10  1  1
  8 11  1  0
  9 12  1  0
  9 13  1  1
 12 14  1  0
 13 15  1  0
 14 16  1  0
 14 17  1  1
 16 18  1  0
 16 19  1  1
 17 20  1  0
  6  7  1  0
 12 11  1  6
 15 16  1  0
 18 20  1  0
M  END
>  <MolRegNo>  (1) 
2058115

>  <m>  (1) 
=

>  <Value>  (1) 
260

>  <Unit>  (1) 
nM

>  <Type>  (1) 
Ki

>  <pValue>  (1) 
6.58

>  <Ligand Efficiency>  (1) 
0.45

>  <Binding Efficiency>  (1) 
24.35

>  <Surface Efficiency>  (1) 
38.58

>  <Assay Index>  (1) 
985548

>  <Assay Category>  (1) 


>  <Assay Organism>  (1) 
Homo sapiens

>  <Target ID>  (1) 
65

>  <Target Name>  (1) 
Cytochrome P450 19A1

>  <Target Organism>  (1) 
Homo sapiens

>  <Target Description>  (1) 
Target is a single protein chain

>  <Sequence Accession>  (1) 
P11511

>  <Reference>  (1) 


>  <Pubmed ID>  (1) 
26469743

>  <DOI>  (1) 
10.1016/j.ejmech.2015.09.038

$$$$
