4wnv_ligand_216
     RDKit          2D

 21 24  0  0  0  0  0  0  0  0999 V2000
    0.0000   -0.0000   -0.0000 O   0  0  0  0  0  0  0  0  0  0  0  0
   -0.0204    1.2626   -0.0000 C   0  0  0  0  0  0  0  0  0  0  0  0
    1.2422    2.0568   -0.0000 C   0  0  0  0  0  0  0  0  0  0  0  0
   -1.3237    2.0364   -0.0000 C   0  0  0  0  0  0  0  0  0  0  0  0
    2.5251    1.3237   -0.0000 C   0  0  0  0  0  0  0  0  0  0  0  0
    1.2218    3.5637   -0.0000 C   0  0  0  0  0  0  0  0  0  0  0  0
   -1.3440    3.5433   -0.0000 C   0  0  0  0  0  0  0  0  0  0  0  0
    3.7877    2.1178   -0.0000 C   0  0  0  0  0  0  0  0  0  0  0  0
    2.4844    4.3172   -0.0000 C   0  0  0  0  0  0  0  0  0  0  0  0
   -0.1018    4.2968   -0.0000 C   0  0  0  0  0  0  0  0  0  0  0  0
    1.1811    4.8263   -0.0000 C   0  0  0  0  0  0  0  0  0  0  0  0
    3.7470    3.6248   -0.0000 C   0  0  0  0  0  0  0  0  0  0  0  0
    2.4437    5.8444   -0.0000 C   0  0  0  0  0  0  0  0  0  0  0  0
    5.0095    4.3782   -0.0000 C   0  0  0  0  0  0  0  0  0  0  0  0
    3.7062    6.6183   -0.0000 C   0  0  0  0  0  0  0  0  0  0  0  0
    4.9892    5.8852   -0.0000 C   0  0  0  0  0  0  0  0  0  0  0  0
    7.5754    4.3782   -0.0000 C   0  0  0  0  0  0  0  0  0  0  0  0
    6.2517    6.6794   -0.0000 C   0  0  0  0  0  0  0  0  0  0  0  0
    4.9688    7.1477   -0.0000 C   0  0  0  0  0  0  0  0  0  0  0  0
    7.5550    5.9259   -0.0000 C   0  0  0  0  0  0  0  0  0  0  0  0
    6.2314    7.9419   -0.0000 O   0  0  0  0  0  0  0  0  0  0  0  0
  1  2  2  0
  2  3  1  0
  2  4  1  0
  3  5  2  0
  3  6  1  0
  4  7  1  0
  5  8  1  0
  6  9  1  0
  6 10  1  0
  6 11  1  6
 12  8  1  1
  9 13  1  6
 12 14  1  0
 13 15  1  0
 14 16  1  0
 14 17  1  6
 16 18  1  0
 16 19  1  6
 17 20  1  0
 18 21  2  0
  7 10  1  0
  9 12  1  0
 15 16  1  0
 18 20  1  0
M  END
>  <MolRegNo>  (1) 
2057834

>  <m>  (1) 
=

>  <Value>  (1) 
120

>  <Unit>  (1) 
nM

>  <Type>  (1) 
Ki

>  <pValue>  (1) 
6.92

>  <Ligand Efficiency>  (1) 
0.45

>  <Binding Efficiency>  (1) 
24.16

>  <Surface Efficiency>  (1) 
20.27

>  <Assay Index>  (1) 
985353

>  <Assay Category>  (1) 


>  <Assay Organism>  (1) 
Homo sapiens

>  <Target ID>  (1) 
65

>  <Target Name>  (1) 
Cytochrome P450 19A1

>  <Target Organism>  (1) 
Homo sapiens

>  <Target Description>  (1) 
Target is a single protein chain

>  <Sequence Accession>  (1) 
P11511

>  <Reference>  (1) 


>  <Pubmed ID>  (1) 
26469743

>  <DOI>  (1) 
10.1016/j.ejmech.2015.09.038

$$$$
