4wnv_ligand_161
     RDKit          2D

 25 27  0  0  0  0  0  0  0  0999 V2000
    0.0000   -0.0000   -0.0000 F   0  0  0  0  0  0  0  0  0  0  0  0
   -0.8917    1.2202   -0.0000 C   0  0  0  0  0  0  0  0  0  0  0  0
    0.3050    2.1119   -0.0000 F   0  0  0  0  0  0  0  0  0  0  0  0
   -2.1119    0.3520   -0.0000 F   0  0  0  0  0  0  0  0  0  0  0  0
   -1.7834    2.4404   -0.0000 C   0  0  0  0  0  0  0  0  0  0  0  0
   -1.1850    3.8131   -0.0000 C   0  0  0  0  0  0  0  0  0  0  0  0
   -3.2734    2.2996   -0.0000 C   0  0  0  0  0  0  0  0  0  0  0  0
   -2.0767    5.0333   -0.0000 C   0  0  0  0  0  0  0  0  0  0  0  0
   -4.1651    3.5198   -0.0000 C   0  0  0  0  0  0  0  0  0  0  0  0
   -3.5667    4.8925   -0.0000 N   0  0  0  0  0  0  0  0  0  0  0  0
   -1.4783    6.4060   -0.0000 N   0  0  0  0  0  0  0  0  0  0  0  0
   -2.3700    7.6262   -0.0000 C   0  0  0  0  0  0  0  0  0  0  0  0
   -0.0117    6.5703   -0.0000 C   0  0  0  0  0  0  0  0  0  0  0  0
   -1.7716    8.9989   -0.0000 C   0  0  0  0  0  0  0  0  0  0  0  0
    0.5866    7.9430   -0.0000 C   0  0  0  0  0  0  0  0  0  0  0  0
   -0.3050    9.1632   -0.0000 N   0  0  0  0  0  0  0  0  0  0  0  0
    0.2933   10.5359   -0.0000 C   0  0  0  0  0  0  0  0  0  0  0  0
   -0.5984   11.7561   -0.0000 C   0  0  0  0  0  0  0  0  0  0  0  0
   -0.1525   13.1874   -0.0000 N   0  0  0  0  0  0  0  0  0  0  0  0
   -2.1001   11.7678   -0.0000 C   0  0  0  0  0  0  0  0  0  0  0  0
   -1.3727   14.0791   -0.0000 C   0  0  0  0  0  0  0  0  0  0  0  0
   -2.5694   13.1992   -0.0000 N   0  0  0  0  0  0  0  0  0  0  0  0
   -2.9918   10.5711   -0.0000 C   0  0  0  0  0  0  0  0  0  0  0  0
   -1.3844   15.5809   -0.0000 C   0  0  0  0  0  0  0  0  0  0  0  0
   -2.6868   16.3318   -0.0000 C   0  0  0  0  0  0  0  0  0  0  0  0
  1  2  1  0
  2  3  1  0
  2  4  1  0
  2  5  1  0
  5  6  2  0
  5  7  1  0
  6  8  1  0
  7  9  2  0
  8 10  2  0
  8 11  1  0
 11 12  1  0
 11 13  1  0
 12 14  1  0
 13 15  1  0
 14 16  1  0
 16 17  1  0
 17 18  1  0
 18 19  1  0
 18 20  2  0
 19 21  1  0
 20 22  1  0
 20 23  1  0
 21 24  1  0
 24 25  1  0
  9 10  1  0
 15 16  1  0
 21 22  2  0
M  END
>  <MolRegNo>  (1) 
943226

>  <m>  (1) 
=

>  <Value>  (1) 
5500

>  <Unit>  (1) 
nM

>  <Type>  (1) 
Ki

>  <pValue>  (1) 
5.26

>  <Ligand Efficiency>  (1) 
0

>  <Binding Efficiency>  (1) 
0

>  <Surface Efficiency>  (1) 
0

>  <Assay Index>  (1) 
581913

>  <Assay Category>  (1) 


>  <Assay Organism>  (1) 
Homo sapiens

>  <Target ID>  (1) 
11365

>  <Target Name>  (1) 
Cytochrome P450 2D6

>  <Target Organism>  (1) 
Homo sapiens

>  <Target Description>  (1) 
Target is a single protein chain

>  <Sequence Accession>  (1) 
P10635

>  <Reference>  (1) 
Curr Drug Metab 6 (1), 413-454 (2005)

>  <Pubmed ID>  (1) 
16248836

>  <DOI>  (1) 
10.2174/138920005774330639

$$$$
