4wnv_ligand_29
     RDKit          2D

 39 42  0  0  0  0  0  0  0  0999 V2000
    0.0000   -0.0000   -0.0000 O   0  0  0  0  0  0  0  0  0  0  0  0
   -0.0119   -1.4866   -0.0000 C   0  0  0  0  0  0  0  0  0  0  0  0
    1.2725   -2.2239   -0.0000 N   0  0  0  0  0  0  0  0  0  0  0  0
   -1.3201   -2.2239   -0.0000 C   0  0  0  0  0  0  0  0  0  0  0  0
    2.5569   -1.4628   -0.0000 C   0  0  0  0  0  0  0  0  0  0  0  0
   -1.3320   -3.7105   -0.0000 N   0  0  0  0  0  0  0  0  0  0  0  0
   -2.6283   -1.4628   -0.0000 C   0  0  0  0  0  0  0  0  0  0  0  0
    2.5451    0.0476   -0.0000 C   0  0  0  0  0  0  0  0  0  0  0  0
   -2.6402   -4.4479   -0.0000 C   0  0  0  0  0  0  0  0  0  0  0  0
   -0.0476   -4.4479   -0.0000 C   0  0  0  0  0  0  0  0  0  0  0  0
   -2.6402    0.0476   -0.0000 C   0  0  0  0  0  0  0  0  0  0  0  0
   -3.9484   -2.2002   -0.0000 C   0  0  0  0  0  0  0  0  0  0  0  0
    3.8414    0.8087   -0.0000 C   0  0  0  0  0  0  0  0  0  0  0  0
    1.2368    0.8087   -0.0000 C   0  0  0  0  0  0  0  0  0  0  0  0
   -2.6521   -5.9464   -0.0000 C   0  0  0  0  0  0  0  0  0  0  0  0
   -0.0595   -5.9464   -0.0000 C   0  0  0  0  0  0  0  0  0  0  0  0
   -3.9484    0.8087   -0.0000 C   0  0  0  0  0  0  0  0  0  0  0  0
   -5.2566   -1.4390   -0.0000 C   0  0  0  0  0  0  0  0  0  0  0  0
    3.8295    2.3191   -0.0000 C   0  0  0  0  0  0  0  0  0  0  0  0
    1.2250    2.3191   -0.0000 C   0  0  0  0  0  0  0  0  0  0  0  0
   -1.3677   -6.6837   -0.0000 N   0  0  0  0  0  0  0  0  0  0  0  0
   -5.2685    0.0714   -0.0000 C   0  0  0  0  0  0  0  0  0  0  0  0
    2.5094    3.0921   -0.0000 C   0  0  0  0  0  0  0  0  0  0  0  0
   -1.3796   -8.1703   -0.0000 C   0  0  0  0  0  0  0  0  0  0  0  0
   -6.5886    0.8444   -0.0000 C   0  0  0  0  0  0  0  0  0  0  0  0
    2.4975    4.5787   -0.0000 O   0  0  0  0  0  0  0  0  0  0  0  0
   -0.0951   -8.9077   -0.0000 C   0  0  0  0  0  0  0  0  0  0  0  0
    3.7819    5.3399   -0.0000 C   0  0  0  0  0  0  0  0  0  0  0  0
    1.1893   -8.1466   -0.0000 O   0  0  0  0  0  0  0  0  0  0  0  0
   -0.1070  -10.3943   -0.0000 C   0  0  0  0  0  0  0  0  0  0  0  0
    1.1774  -11.1316   -0.0000 O   0  0  0  0  0  0  0  0  0  0  0  0
    1.1655  -12.6182   -0.0000 C   0  0  0  0  0  0  0  0  0  0  0  0
    2.4499  -13.3556   -0.0000 C   0  0  0  0  0  0  0  0  0  0  0  0
   -0.1427  -13.3556   -0.0000 C   0  0  0  0  0  0  0  0  0  0  0  0
    2.4380  -14.8541   -0.0000 C   0  0  0  0  0  0  0  0  0  0  0  0
    3.7462  -12.5826   -0.0000 C   0  0  0  0  0  0  0  0  0  0  0  0
   -0.1546  -14.8541   -0.0000 C   0  0  0  0  0  0  0  0  0  0  0  0
   -1.4628  -12.5826   -0.0000 C   0  0  0  0  0  0  0  0  0  0  0  0
    1.1298  -15.5914   -0.0000 C   0  0  0  0  0  0  0  0  0  0  0  0
  1  2  2  0
  2  3  1  0
  2  4  1  0
  3  5  1  0
  4  6  1  0
  4  7  1  0
  5  8  1  0
  6  9  1  0
  6 10  1  0
  7 11  2  0
  7 12  1  0
  8 13  2  0
  8 14  1  0
  9 15  1  0
 10 16  1  0
 11 17  1  0
 12 18  2  0
 13 19  1  0
 14 20  2  0
 15 21  1  0
 17 22  2  0
 19 23  2  0
 21 24  1  0
 22 25  1  0
 23 26  1  0
 24 27  1  0
 26 28  1  0
 27 29  1  0
 27 30  1  0
 30 31  1  0
 31 32  1  0
 32 33  2  0
 32 34  1  0
 33 35  1  0
 33 36  1  0
 34 37  2  0
 34 38  1  0
 35 39  2  0
 16 21  1  0
 18 22  1  0
 20 23  1  0
 37 39  1  0
M  END
>  <MolRegNo>  (1) 
97880

>  <m>  (1) 
=

>  <Value>  (1) 
3000

>  <Unit>  (1) 
nM

>  <Type>  (1) 
Ki

>  <pValue>  (1) 
5.52

>  <Ligand Efficiency>  (1) 
0

>  <Binding Efficiency>  (1) 
0

>  <Surface Efficiency>  (1) 
0

>  <Assay Index>  (1) 
51650

>  <Assay Category>  (1) 


>  <Assay Organism>  (1) 


>  <Target ID>  (1) 
11365

>  <Target Name>  (1) 
Cytochrome P450 2D6

>  <Target Organism>  (1) 
Homo sapiens

>  <Target Description>  (1) 
Target is a single protein chain

>  <Sequence Accession>  (1) 
P10635

>  <Reference>  (1) 
Bioorg Med Chem Lett 14 (9), 2025-2030 (2004)

>  <Pubmed ID>  (1) 
15080972

>  <DOI>  (1) 
10.1016/j.bmcl.2004.02.078

$$$$
