4wnv_ligand_64
     RDKit          2D

 22 25  0  0  0  0  0  0  0  0999 V2000
    0.0000   -0.0000   -0.0000 O   0  0  0  0  0  0  0  0  0  0  0  0
   -0.0125   -1.2148   -0.0000 C   0  0  0  0  0  0  0  0  0  0  0  0
    1.3025   -1.9662   -0.0000 C   0  0  0  0  0  0  0  0  0  0  0  0
   -1.3525   -1.9662   -0.0000 C   0  0  0  0  0  0  0  0  0  0  0  0
    1.2899   -3.4816   -0.0000 C   0  0  0  0  0  0  0  0  0  0  0  0
    2.6174   -1.1772   -0.0000 C   0  0  0  0  0  0  0  0  0  0  0  0
   -2.6800   -1.2023   -0.0000 N   0  0  0  0  0  0  0  0  0  0  0  0
   -1.3651   -3.5442   -0.0000 C   0  0  0  0  0  0  0  0  0  0  0  0
    2.5924   -4.2330   -0.0000 C   0  0  0  0  0  0  0  0  0  0  0  0
   -0.0501   -4.2330   -0.0000 C   0  0  0  0  0  0  0  0  0  0  0  0
    3.9199   -1.9286   -0.0000 C   0  0  0  0  0  0  0  0  0  0  0  0
   -4.0326   -1.9412   -0.0000 C   0  0  0  0  0  0  0  0  0  0  0  0
   -3.4440   -2.2793   -0.0000 C   0  0  0  0  0  0  0  0  0  0  0  0
   -2.6926   -4.2831   -0.0000 C   0  0  0  0  0  0  0  0  0  0  0  0
    3.9074   -3.4565   -0.0000 N   0  0  0  0  0  0  0  0  0  0  0  0
    2.5799   -5.7483   -0.0000 C   0  0  0  0  0  0  0  0  0  0  0  0
   -0.0626   -5.7483   -0.0000 C   0  0  0  0  0  0  0  0  0  0  0  0
   -4.0451   -3.5191   -0.0000 C   0  0  0  0  0  0  0  0  0  0  0  0
   -1.9161   -3.1810   -0.0000 C   0  0  0  0  0  0  0  0  0  0  0  0
    1.2398   -6.4997   -0.0000 C   0  0  0  0  0  0  0  0  0  0  0  0
   -5.3851   -4.2580   -0.0000 C   0  0  0  0  0  0  0  0  0  0  0  0
   -6.4496   -3.6193   -0.0000 C   0  0  0  0  0  0  0  0  0  0  0  0
  1  2  1  0
  2  3  1  0
  2  4  1  0
  3  5  1  0
  3  6  2  0
  4  7  1  0
  4  8  1  0
  5  9  2  0
  5 10  1  0
  6 11  1  0
  7 12  1  0
  7 13  1  0
  8 14  1  0
  9 15  1  0
  9 16  1  0
 10 17  2  0
 12 18  1  0
 13 19  1  0
 16 20  2  0
 18 21  1  0
 21 22  1  0
 11 15  2  0
 14 18  1  0
 14 19  1  0
 17 20  1  0
M  END
>  <MolRegNo>  (1) 
15148

>  <m>  (1) 
=

>  <Value>  (1) 
2800

>  <Unit>  (1) 
nM

>  <Type>  (1) 
Ki

>  <pValue>  (1) 
5.55

>  <Ligand Efficiency>  (1) 
0

>  <Binding Efficiency>  (1) 
0

>  <Surface Efficiency>  (1) 
0

>  <Assay Index>  (1) 
122801

>  <Assay Category>  (1) 


>  <Assay Organism>  (1) 
Homo sapiens

>  <Target ID>  (1) 
11365

>  <Target Name>  (1) 
Cytochrome P450 2D6

>  <Target Organism>  (1) 
Homo sapiens

>  <Target Description>  (1) 
Target is a single protein chain

>  <Sequence Accession>  (1) 
P10635

>  <Reference>  (1) 
J Med Chem 36 (9), 1136-1145 (1993)

>  <Pubmed ID>  (1) 
8487254

>  <DOI>  (1) 
10.1021/jm00061a004

$$$$
