4wnv_ligand_107
     RDKit          2D

 23 26  0  0  1  0  0  0  0  0999 V2000
    0.0000   -0.0000   -0.0000 F   0  0  0  0  0  0  0  0  0  0  0  0
    1.4483   -0.3576   -0.0000 C   0  0  0  0  0  0  0  0  0  0  0  0
    1.8238    1.1265   -0.0000 F   0  0  0  0  0  0  0  0  0  0  0  0
    1.4304   -1.8417   -0.0000 C   0  0  0  0  0  0  0  0  0  0  0  0
    1.4126   -3.3258   -0.0000 C   0  0  0  0  0  0  0  0  0  0  0  0
    2.7178   -1.0728   -0.0000 C   0  0  0  0  0  0  0  0  0  0  0  0
    0.1073   -1.0549   -0.0000 C   0  0  0  0  0  0  0  0  0  0  0  0
    0.1073   -4.0410   -0.0000 C   0  0  0  0  0  0  0  0  0  0  0  0
    2.7000   -4.0589   -0.0000 C   0  0  0  0  0  0  0  0  0  0  0  0
    3.9874   -1.8059   -0.0000 C   0  0  0  0  0  0  0  0  0  0  0  0
    2.6821    0.4649   -0.0000 C   0  0  0  0  0  0  0  0  0  0  0  0
   -1.2159   -1.8059   -0.0000 C   0  0  0  0  0  0  0  0  0  0  0  0
   -1.2159   -3.2900   -0.0000 C   0  0  0  0  0  0  0  0  0  0  0  0
    3.9874   -3.2900   -0.0000 C   0  0  0  0  0  0  0  0  0  0  0  0
    5.2926   -0.8761   -0.0000 C   0  0  0  0  0  0  0  0  0  0  0  0
    4.0052    1.2159   -0.0000 C   0  0  0  0  0  0  0  0  0  0  0  0
   -2.5390   -4.0231   -0.0000 O   0  0  0  0  0  0  0  0  0  0  0  0
    5.2747    0.4470   -0.0000 C   0  0  0  0  0  0  0  0  0  0  0  0
    7.5456   -0.8583   -0.0000 C   0  0  0  0  0  0  0  0  0  0  0  0
    6.4012    1.1265   -0.0000 C   0  0  0  0  0  0  0  0  0  0  0  0
    5.2569    1.9669   -0.0000 C   0  0  0  0  0  0  0  0  0  0  0  0
    7.5277    0.4649   -0.0000 C   0  0  0  0  0  0  0  0  0  0  0  0
    6.3833    2.4496   -0.0000 O   0  0  0  0  0  0  0  0  0  0  0  0
  1  2  1  0
  2  3  1  0
  4  2  1  1
  4  5  1  0
  4  6  1  0
  4  7  1  0
  5  8  2  0
  5  9  1  0
  6 10  1  0
  6 11  1  0
  7 12  1  0
  8 13  1  0
  9 14  1  0
 10 15  1  0
 11 16  1  0
 13 17  2  0
 15 18  1  0
 15 19  1  0
 18 20  1  0
 18 21  1  1
 19 22  1  0
 20 23  2  0
 10 14  1  0
 12 13  1  0
 16 18  1  0
 20 22  1  0
M  END
>  <MolRegNo>  (1) 
163229

>  <m>  (1) 
=

>  <Value>  (1) 
1

>  <Unit>  (1) 
nM

>  <Type>  (1) 
Ki

>  <pValue>  (1) 
9

>  <Ligand Efficiency>  (1) 
0.53

>  <Binding Efficiency>  (1) 
27.92

>  <Surface Efficiency>  (1) 
26.36

>  <Assay Index>  (1) 
50795

>  <Assay Category>  (1) 


>  <Assay Organism>  (1) 


>  <Target ID>  (1) 
65

>  <Target Name>  (1) 
Cytochrome P450 19A1

>  <Target Organism>  (1) 
Homo sapiens

>  <Target Description>  (1) 
Target is a single protein chain

>  <Sequence Accession>  (1) 
P11511

>  <Reference>  (1) 
J Med Chem 33 (11), 2933-2942 (1990)

>  <Pubmed ID>  (1) 
2231592

>  <DOI>  (1) 
10.1021/jm00173a001

$$$$
