4wnv_ligand_72
     RDKit          2D

 26 30  0  0  1  0  0  0  0  0999 V2000
    0.0000   -0.0000   -0.0000 O   0  0  0  0  0  0  0  0  0  0  0  0
   -0.9813    1.1429   -0.0000 C   0  0  0  0  0  0  0  0  0  0  0  0
   -2.4590    0.8774   -0.0000 O   0  0  0  0  0  0  0  0  0  0  0  0
   -0.4964    2.5629   -0.0000 C   0  0  0  0  0  0  0  0  0  0  0  0
   -2.9670   -0.5195   -0.0000 C   0  0  0  0  0  0  0  0  0  0  0  0
    0.9582    2.8516   -0.0000 C   0  0  0  0  0  0  0  0  0  0  0  0
   -1.4777    3.7059   -0.0000 C   0  0  0  0  0  0  0  0  0  0  0  0
    1.4431    4.2716   -0.0000 O   0  0  0  0  0  0  0  0  0  0  0  0
   -0.9929    5.1259   -0.0000 C   0  0  0  0  0  0  0  0  0  0  0  0
   -2.9555    3.4403   -0.0000 C   0  0  0  0  0  0  0  0  0  0  0  0
    0.4618    5.4145   -0.0000 C   0  0  0  0  0  0  0  0  0  0  0  0
   -1.9742    6.2688   -0.0000 C   0  0  0  0  0  0  0  0  0  0  0  0
   -3.9368    4.5833   -0.0000 C   0  0  0  0  0  0  0  0  0  0  0  0
    0.9467    6.8345   -0.0000 C   0  0  0  0  0  0  0  0  0  0  0  0
   -3.4519    6.0033   -0.0000 N   0  0  0  0  0  0  0  0  0  0  0  0
   -5.4145    4.3177   -0.0000 C   0  0  0  0  0  0  0  0  0  0  0  0
   -4.4332    7.1462   -0.0000 C   0  0  0  0  0  0  0  0  0  0  0  0
   -6.1995    3.0478   -0.0000 N   0  0  0  0  0  0  0  0  0  0  0  0
   -6.3958    5.4607   -0.0000 C   0  0  0  0  0  0  0  0  0  0  0  0
   -5.9109    6.8807   -0.0000 C   0  0  0  0  0  0  0  0  0  0  0  0
   -7.6657    3.4057   -0.0000 C   0  0  0  0  0  0  0  0  0  0  0  0
   -7.7812    4.8950   -0.0000 C   0  0  0  0  0  0  0  0  0  0  0  0
   -8.9010    2.5629   -0.0000 C   0  0  0  0  0  0  0  0  0  0  0  0
   -9.1435    5.5415   -0.0000 C   0  0  0  0  0  0  0  0  0  0  0  0
  -10.2633    3.2094   -0.0000 C   0  0  0  0  0  0  0  0  0  0  0  0
  -10.3787    4.6987   -0.0000 C   0  0  0  0  0  0  0  0  0  0  0  0
  1  2  2  0
  2  3  1  0
  2  4  1  0
  3  5  1  0
  4  6  2  0
  4  7  1  0
  6  8  1  0
  7  9  1  0
  7 10  1  1
  8 11  1  0
  9 12  1  6
 13 10  1  1
 11 14  1  6
 12 15  1  0
 13 16  1  0
 15 17  1  0
 16 18  1  0
 16 19  2  0
 17 20  1  0
 18 21  1  0
 19 22  1  0
 21 23  2  0
 22 24  2  0
 23 25  1  0
 24 26  1  0
  9 11  1  0
 13 15  1  0
 19 20  1  0
 21 22  1  0
 25 26  2  0
M  END
>  <MolRegNo>  (1) 
202450

>  <m>  (1) 
=

>  <Value>  (1) 
3.3

>  <Unit>  (1) 
nM

>  <Type>  (1) 
Ki

>  <pValue>  (1) 
8.48

>  <Ligand Efficiency>  (1) 
0

>  <Binding Efficiency>  (1) 
0

>  <Surface Efficiency>  (1) 
0

>  <Assay Index>  (1) 
147623

>  <Assay Category>  (1) 


>  <Assay Organism>  (1) 
Homo sapiens

>  <Target ID>  (1) 
11365

>  <Target Name>  (1) 
Cytochrome P450 2D6

>  <Target Organism>  (1) 
Homo sapiens

>  <Target Description>  (1) 
Target is a single protein chain

>  <Sequence Accession>  (1) 
P10635

>  <Reference>  (1) 
J Med Chem 36 (9), 1136-1145 (1993)

>  <Pubmed ID>  (1) 
8487254

>  <DOI>  (1) 
10.1021/jm00061a004

$$$$
