4wnv_ligand_348
     RDKit          2D

 22 26  0  0  0  0  0  0  0  0999 V2000
    0.0000   -0.0000   -0.0000 O   0  0  0  0  0  0  0  0  0  0  0  0
    1.0479    0.6016   -0.0000 C   0  0  0  0  0  0  0  0  0  0  0  0
    2.3286   -0.2135   -0.0000 C   0  0  0  0  0  0  0  0  0  0  0  0
    1.0285    2.3092   -0.0000 C   0  0  0  0  0  0  0  0  0  0  0  0
    3.6094    0.6792   -0.0000 C   0  0  0  0  0  0  0  0  0  0  0  0
    2.2898    3.0854   -0.0000 C   0  0  0  0  0  0  0  0  0  0  0  0
    1.7077    1.3002   -0.0000 C   0  0  0  0  0  0  0  0  0  0  0  0
    3.5900    2.3092   -0.0000 C   0  0  0  0  0  0  0  0  0  0  0  0
    4.8125   -0.1746   -0.0000 C   0  0  0  0  0  0  0  0  0  0  0  0
    2.9108    1.3196   -0.0000 C   0  0  0  0  0  0  0  0  0  0  0  0
    4.7931    3.1631   -0.0000 C   0  0  0  0  0  0  0  0  0  0  0  0
    6.0156    0.7180   -0.0000 C   0  0  0  0  0  0  0  0  0  0  0  0
    5.9962    2.3480   -0.0000 C   0  0  0  0  0  0  0  0  0  0  0  0
    4.7737    4.8125   -0.0000 C   0  0  0  0  0  0  0  0  0  0  0  0
    7.1800    3.2019   -0.0000 C   0  0  0  0  0  0  0  0  0  0  0  0
    5.9768    5.6858   -0.0000 C   0  0  0  0  0  0  0  0  0  0  0  0
    7.1606    4.8513   -0.0000 C   0  0  0  0  0  0  0  0  0  0  0  0
    9.6250    3.2213   -0.0000 C   0  0  0  0  0  0  0  0  0  0  0  0
    8.3831    5.7246   -0.0000 C   0  0  0  0  0  0  0  0  0  0  0  0
    7.1412    6.0739   -0.0000 C   0  0  0  0  0  0  0  0  0  0  0  0
    9.6056    4.8707   -0.0000 C   0  0  0  0  0  0  0  0  0  0  0  0
    8.3637    6.9471   -0.0000 O   0  0  0  0  0  0  0  0  0  0  0  0
  1  2  2  0
  2  3  1  0
  2  4  1  0
  3  5  2  0
  4  6  1  0
  4  7  1  6
  5  8  1  0
  5  9  1  0
  7 10  1  0
  8 11  1  0
  9 12  1  0
 11 13  1  0
 11 14  1  6
 13 15  1  0
 14 16  1  0
 15 17  1  0
 15 18  1  6
 17 19  1  0
 17 20  1  6
 18 21  1  0
 19 22  2  0
  8  6  1  0
  8 10  1  6
 13 12  1  1
 16 17  1  0
 19 21  1  0
M  END
>  <MolRegNo>  (1) 
2058223

>  <m>  (1) 
=

>  <Value>  (1) 
10000

>  <Unit>  (1) 
nM

>  <Type>  (1) 
Ki

>  <pValue>  (1) 
5

>  <Ligand Efficiency>  (1) 
0.31

>  <Binding Efficiency>  (1) 
16.75

>  <Surface Efficiency>  (1) 
14.65

>  <Assay Index>  (1) 
985549

>  <Assay Category>  (1) 


>  <Assay Organism>  (1) 
Homo sapiens

>  <Target ID>  (1) 
65

>  <Target Name>  (1) 
Cytochrome P450 19A1

>  <Target Organism>  (1) 
Homo sapiens

>  <Target Description>  (1) 
Target is a single protein chain

>  <Sequence Accession>  (1) 
P11511

>  <Reference>  (1) 


>  <Pubmed ID>  (1) 
26469743

>  <DOI>  (1) 
10.1016/j.ejmech.2015.09.038

$$$$
