4wnv_ligand_133
     RDKit          2D

 13 14  0  0  0  0  0  0  0  0999 V2000
    0.0000   -0.0000   -0.0000 N   0  0  0  0  0  0  0  0  0  0  0  0
    1.3150   -0.7600   -0.0000 C   0  0  0  0  0  0  0  0  0  0  0  0
   -0.0121    1.5442   -0.0000 C   0  0  0  0  0  0  0  0  0  0  0  0
    2.6300    0.0121   -0.0000 C   0  0  0  0  0  0  0  0  0  0  0  0
    1.3029    2.3163   -0.0000 C   0  0  0  0  0  0  0  0  0  0  0  0
    3.9449   -0.7480   -0.0000 C   0  0  0  0  0  0  0  0  0  0  0  0
    2.6179    1.5563   -0.0000 C   0  0  0  0  0  0  0  0  0  0  0  0
    4.0656   -2.2439   -0.0000 N   0  0  0  0  0  0  0  0  0  0  0  0
    5.3202   -0.1086   -0.0000 C   0  0  0  0  0  0  0  0  0  0  0  0
    5.5494   -2.5576   -0.0000 N   0  0  0  0  0  0  0  0  0  0  0  0
    6.3336   -1.2426   -0.0000 C   0  0  0  0  0  0  0  0  0  0  0  0
    7.8416   -1.0737   -0.0000 C   0  0  0  0  0  0  0  0  0  0  0  0
    8.5413   -2.0509   -0.0000 N   0  0  0  0  0  0  0  0  0  0  0  0
  1  2  2  0
  1  3  1  0
  2  4  1  0
  3  5  2  0
  4  6  1  0
  4  7  2  0
  6  8  2  0
  6  9  1  0
  8 10  1  0
  9 11  2  0
 11 12  1  0
 12 13  1  0
  5  7  1  0
 10 11  1  0
M  END
>  <MolRegNo>  (1) 
361910

>  <m>  (1) 
=

>  <Value>  (1) 
29800

>  <Unit>  (1) 
nM

>  <Type>  (1) 
Ki

>  <pValue>  (1) 
4.53

>  <Ligand Efficiency>  (1) 
0

>  <Binding Efficiency>  (1) 
0

>  <Surface Efficiency>  (1) 
0

>  <Assay Index>  (1) 
269558

>  <Assay Category>  (1) 


>  <Assay Organism>  (1) 
Homo sapiens

>  <Target ID>  (1) 
11365

>  <Target Name>  (1) 
Cytochrome P450 2D6

>  <Target Organism>  (1) 
Homo sapiens

>  <Target Description>  (1) 
Target is a single protein chain

>  <Sequence Accession>  (1) 
P10635

>  <Reference>  (1) 
J Med Chem 49 (24), 6987-7001 (2006)

>  <Pubmed ID>  (1) 
17125252

>  <DOI>  (1) 
10.1021/jm060519r

$$$$
