4wnv_ligand_22
     RDKit          2D

 37 40  0  0  0  0  0  0  0  0999 V2000
    0.0000   -0.0000   -0.0000 O   0  0  0  0  0  0  0  0  0  0  0  0
   -0.0119   -1.4880   -0.0000 C   0  0  0  0  0  0  0  0  0  0  0  0
    1.2737   -2.2261   -0.0000 N   0  0  0  0  0  0  0  0  0  0  0  0
   -1.3214   -2.2261   -0.0000 C   0  0  0  0  0  0  0  0  0  0  0  0
    2.5594   -1.4642   -0.0000 C   0  0  0  0  0  0  0  0  0  0  0  0
   -1.3333   -3.7141   -0.0000 N   0  0  0  0  0  0  0  0  0  0  0  0
   -2.6308   -1.4642   -0.0000 C   0  0  0  0  0  0  0  0  0  0  0  0
    2.5475    0.0476   -0.0000 C   0  0  0  0  0  0  0  0  0  0  0  0
   -2.6427   -4.4521   -0.0000 C   0  0  0  0  0  0  0  0  0  0  0  0
   -0.0476   -4.4521   -0.0000 C   0  0  0  0  0  0  0  0  0  0  0  0
   -3.9522   -2.2023   -0.0000 C   0  0  0  0  0  0  0  0  0  0  0  0
   -2.6427    0.0476   -0.0000 C   0  0  0  0  0  0  0  0  0  0  0  0
    3.8450    0.8095   -0.0000 C   0  0  0  0  0  0  0  0  0  0  0  0
    1.2380    0.8095   -0.0000 C   0  0  0  0  0  0  0  0  0  0  0  0
   -2.6546   -5.9520   -0.0000 C   0  0  0  0  0  0  0  0  0  0  0  0
   -0.0595   -5.9520   -0.0000 C   0  0  0  0  0  0  0  0  0  0  0  0
   -5.2616   -1.4404   -0.0000 C   0  0  0  0  0  0  0  0  0  0  0  0
   -3.9522    0.8095   -0.0000 C   0  0  0  0  0  0  0  0  0  0  0  0
    3.8331    2.3213   -0.0000 C   0  0  0  0  0  0  0  0  0  0  0  0
    1.2261    2.3213   -0.0000 C   0  0  0  0  0  0  0  0  0  0  0  0
   -1.3690   -6.6901   -0.0000 N   0  0  0  0  0  0  0  0  0  0  0  0
   -5.2735    0.0714   -0.0000 C   0  0  0  0  0  0  0  0  0  0  0  0
    2.5118    3.0951   -0.0000 C   0  0  0  0  0  0  0  0  0  0  0  0
   -1.3809   -8.1781   -0.0000 C   0  0  0  0  0  0  0  0  0  0  0  0
   -6.5949    0.8452   -0.0000 C   0  0  0  0  0  0  0  0  0  0  0  0
   -0.0952   -8.9162   -0.0000 C   0  0  0  0  0  0  0  0  0  0  0  0
    1.1904   -8.1543   -0.0000 O   0  0  0  0  0  0  0  0  0  0  0  0
   -0.1071  -10.4042   -0.0000 C   0  0  0  0  0  0  0  0  0  0  0  0
    1.1785  -11.1422   -0.0000 O   0  0  0  0  0  0  0  0  0  0  0  0
    1.1666  -12.6302   -0.0000 C   0  0  0  0  0  0  0  0  0  0  0  0
   -0.1428  -13.3683   -0.0000 C   0  0  0  0  0  0  0  0  0  0  0  0
    2.4522  -13.3683   -0.0000 C   0  0  0  0  0  0  0  0  0  0  0  0
   -0.1548  -14.8682   -0.0000 C   0  0  0  0  0  0  0  0  0  0  0  0
    2.4403  -14.8682   -0.0000 C   0  0  0  0  0  0  0  0  0  0  0  0
    1.1309  -15.6063   -0.0000 C   0  0  0  0  0  0  0  0  0  0  0  0
    1.1309  -17.0943   -0.0000 O   0  0  0  0  0  0  0  0  0  0  0  0
    2.4165  -17.8204   -0.0000 C   0  0  0  0  0  0  0  0  0  0  0  0
  1  2  2  0
  2  3  1  0
  2  4  1  0
  3  5  1  0
  4  6  1  0
  4  7  1  0
  5  8  1  0
  6  9  1  0
  6 10  1  0
  7 11  2  0
  7 12  1  0
  8 13  2  0
  8 14  1  0
  9 15  1  0
 10 16  1  0
 11 17  1  0
 12 18  2  0
 13 19  1  0
 14 20  2  0
 15 21  1  0
 17 22  2  0
 19 23  2  0
 21 24  1  0
 22 25  1  0
 24 26  1  0
 26 27  1  0
 26 28  1  0
 28 29  1  0
 29 30  1  0
 30 31  2  0
 30 32  1  0
 31 33  1  0
 32 34  2  0
 33 35  2  0
 35 36  1  0
 36 37  1  0
 16 21  1  0
 18 22  1  0
 20 23  1  0
 34 35  1  0
M  END
>  <MolRegNo>  (1) 
97852

>  <m>  (1) 
=

>  <Value>  (1) 
4000

>  <Unit>  (1) 
nM

>  <Type>  (1) 
Ki

>  <pValue>  (1) 
5.4

>  <Ligand Efficiency>  (1) 
0

>  <Binding Efficiency>  (1) 
0

>  <Surface Efficiency>  (1) 
0

>  <Assay Index>  (1) 
51650

>  <Assay Category>  (1) 


>  <Assay Organism>  (1) 


>  <Target ID>  (1) 
11365

>  <Target Name>  (1) 
Cytochrome P450 2D6

>  <Target Organism>  (1) 
Homo sapiens

>  <Target Description>  (1) 
Target is a single protein chain

>  <Sequence Accession>  (1) 
P10635

>  <Reference>  (1) 
Bioorg Med Chem Lett 14 (9), 2025-2030 (2004)

>  <Pubmed ID>  (1) 
15080972

>  <DOI>  (1) 
10.1016/j.bmcl.2004.02.078

$$$$
