4wnv_ligand_225
     RDKit          2D

 21 24  0  0  0  0  0  0  0  0999 V2000
    0.0000   -0.0000   -0.0000 O   0  0  0  0  0  0  0  0  0  0  0  0
    0.0000   -1.2265   -0.0000 C   0  0  0  0  0  0  0  0  0  0  0  0
   -1.3107   -1.9841   -0.0000 C   0  0  0  0  0  0  0  0  0  0  0  0
    1.2866   -1.9720   -0.0000 C   0  0  0  0  0  0  0  0  0  0  0  0
   -1.3227   -3.4631   -0.0000 C   0  0  0  0  0  0  0  0  0  0  0  0
   -2.6093   -1.2145   -0.0000 C   0  0  0  0  0  0  0  0  0  0  0  0
   -1.3227   -0.7335   -0.0000 C   0  0  0  0  0  0  0  0  0  0  0  0
    1.2746   -3.4871   -0.0000 C   0  0  0  0  0  0  0  0  0  0  0  0
   -2.6214   -4.1845   -0.0000 C   0  0  0  0  0  0  0  0  0  0  0  0
   -3.9200   -1.9600   -0.0000 C   0  0  0  0  0  0  0  0  0  0  0  0
   -3.9200   -3.4510   -0.0000 C   0  0  0  0  0  0  0  0  0  0  0  0
   -2.6093   -5.6636   -0.0000 C   0  0  0  0  0  0  0  0  0  0  0  0
   -5.2187   -4.1725   -0.0000 C   0  0  0  0  0  0  0  0  0  0  0  0
   -3.9080   -6.4211   -0.0000 C   0  0  0  0  0  0  0  0  0  0  0  0
   -5.2307   -5.6515   -0.0000 C   0  0  0  0  0  0  0  0  0  0  0  0
   -6.5534   -3.4390   -0.0000 C   0  0  0  0  0  0  0  0  0  0  0  0
   -5.2427   -2.9220   -0.0000 C   0  0  0  0  0  0  0  0  0  0  0  0
   -3.9080   -7.6476   -0.0000 C   0  0  0  0  0  0  0  0  0  0  0  0
   -6.5414   -6.4091   -0.0000 C   0  0  0  0  0  0  0  0  0  0  0  0
   -7.8280   -4.1605   -0.0000 C   0  0  0  0  0  0  0  0  0  0  0  0
   -7.8400   -5.6395   -0.0000 C   0  0  0  0  0  0  0  0  0  0  0  0
  1  2  2  0
  2  3  1  0
  2  4  1  0
  3  5  1  0
  3  6  1  0
  3  7  1  6
  4  8  1  0
  5  9  1  0
  6 10  1  0
  9 11  1  0
  9 12  1  1
 11 13  1  0
 12 14  1  0
 13 15  1  0
 13 16  1  0
 13 17  1  6
 14 18  1  6
 15 19  2  0
 16 20  1  0
 19 21  1  0
  5  8  1  6
 11 10  1  6
 14 15  1  0
 20 21  1  0
M  END
>  <MolRegNo>  (1) 
2057921

>  <m>  (1) 
=

>  <Value>  (1) 
5.3

>  <Unit>  (1) 
nM

>  <Type>  (1) 
Ki

>  <pValue>  (1) 
8.28

>  <Ligand Efficiency>  (1) 
0.54

>  <Binding Efficiency>  (1) 
28.89

>  <Surface Efficiency>  (1) 
48.48

>  <Assay Index>  (1) 
985353

>  <Assay Category>  (1) 


>  <Assay Organism>  (1) 
Homo sapiens

>  <Target ID>  (1) 
65

>  <Target Name>  (1) 
Cytochrome P450 19A1

>  <Target Organism>  (1) 
Homo sapiens

>  <Target Description>  (1) 
Target is a single protein chain

>  <Sequence Accession>  (1) 
P11511

>  <Reference>  (1) 


>  <Pubmed ID>  (1) 
26469743

>  <DOI>  (1) 
10.1016/j.ejmech.2015.09.038

$$$$
