4wnv_ligand_12
     RDKit          2D

 35 38  0  0  0  0  0  0  0  0999 V2000
    0.0000   -0.0000   -0.0000 Cl  0  0  0  0  0  0  0  0  0  0  0  0
   -1.3195    0.7727   -0.0000 C   0  0  0  0  0  0  0  0  0  0  0  0
   -2.6390    0.0357   -0.0000 C   0  0  0  0  0  0  0  0  0  0  0  0
   -1.3314    2.2943   -0.0000 C   0  0  0  0  0  0  0  0  0  0  0  0
   -3.9467    0.7965   -0.0000 C   0  0  0  0  0  0  0  0  0  0  0  0
   -2.6390    3.0551   -0.0000 C   0  0  0  0  0  0  0  0  0  0  0  0
   -3.9585    2.3181   -0.0000 C   0  0  0  0  0  0  0  0  0  0  0  0
   -5.2662    3.0789   -0.0000 C   0  0  0  0  0  0  0  0  0  0  0  0
   -5.2781    4.5886   -0.0000 O   0  0  0  0  0  0  0  0  0  0  0  0
   -6.5738    2.3418   -0.0000 N   0  0  0  0  0  0  0  0  0  0  0  0
   -7.8814    3.1026   -0.0000 C   0  0  0  0  0  0  0  0  0  0  0  0
   -6.5857    0.8559   -0.0000 C   0  0  0  0  0  0  0  0  0  0  0  0
   -9.2009    2.3656   -0.0000 C   0  0  0  0  0  0  0  0  0  0  0  0
   -7.8933    4.6124   -0.0000 C   0  0  0  0  0  0  0  0  0  0  0  0
   -5.3018    0.1189   -0.0000 C   0  0  0  0  0  0  0  0  0  0  0  0
   -7.8933    0.1189   -0.0000 C   0  0  0  0  0  0  0  0  0  0  0  0
  -10.5086    3.1264   -0.0000 C   0  0  0  0  0  0  0  0  0  0  0  0
   -9.2009    5.3732   -0.0000 C   0  0  0  0  0  0  0  0  0  0  0  0
   -5.3137   -1.3790   -0.0000 C   0  0  0  0  0  0  0  0  0  0  0  0
   -7.9052   -1.3790   -0.0000 C   0  0  0  0  0  0  0  0  0  0  0  0
  -10.5205    4.6361   -0.0000 C   0  0  0  0  0  0  0  0  0  0  0  0
   -6.6214   -2.1160   -0.0000 N   0  0  0  0  0  0  0  0  0  0  0  0
   -6.6332   -3.6019   -0.0000 C   0  0  0  0  0  0  0  0  0  0  0  0
   -5.3494   -4.3389   -0.0000 C   0  0  0  0  0  0  0  0  0  0  0  0
   -4.0655   -3.5781   -0.0000 O   0  0  0  0  0  0  0  0  0  0  0  0
   -5.3613   -5.8249   -0.0000 C   0  0  0  0  0  0  0  0  0  0  0  0
   -4.0774   -6.5619   -0.0000 O   0  0  0  0  0  0  0  0  0  0  0  0
   -4.0893   -8.0479   -0.0000 C   0  0  0  0  0  0  0  0  0  0  0  0
   -5.3969   -8.7849   -0.0000 C   0  0  0  0  0  0  0  0  0  0  0  0
   -2.8055   -8.7849   -0.0000 C   0  0  0  0  0  0  0  0  0  0  0  0
   -5.4088  -10.2827   -0.0000 C   0  0  0  0  0  0  0  0  0  0  0  0
   -2.8173  -10.2827   -0.0000 C   0  0  0  0  0  0  0  0  0  0  0  0
   -4.1250  -11.0197   -0.0000 C   0  0  0  0  0  0  0  0  0  0  0  0
   -4.1250  -12.5057   -0.0000 O   0  0  0  0  0  0  0  0  0  0  0  0
   -2.8411  -13.2308   -0.0000 C   0  0  0  0  0  0  0  0  0  0  0  0
  1  2  1  0
  2  3  2  0
  2  4  1  0
  3  5  1  0
  4  6  2  0
  5  7  2  0
  7  8  1  0
  8  9  2  0
  8 10  1  0
 10 11  1  0
 10 12  1  0
 11 13  2  0
 11 14  1  0
 12 15  1  0
 12 16  1  0
 13 17  1  0
 14 18  2  0
 15 19  1  0
 16 20  1  0
 17 21  2  0
 19 22  1  0
 22 23  1  0
 23 24  1  0
 24 25  1  0
 24 26  1  0
 26 27  1  0
 27 28  1  0
 28 29  2  0
 28 30  1  0
 29 31  1  0
 30 32  2  0
 31 33  2  0
 33 34  1  0
 34 35  1  0
  6  7  1  0
 18 21  1  0
 20 22  1  0
 32 33  1  0
M  END
>  <MolRegNo>  (1) 
96314

>  <m>  (1) 
=

>  <Value>  (1) 
1000

>  <Unit>  (1) 
nM

>  <Type>  (1) 
Ki

>  <pValue>  (1) 
6

>  <Ligand Efficiency>  (1) 
0

>  <Binding Efficiency>  (1) 
0

>  <Surface Efficiency>  (1) 
0

>  <Assay Index>  (1) 
51650

>  <Assay Category>  (1) 


>  <Assay Organism>  (1) 


>  <Target ID>  (1) 
11365

>  <Target Name>  (1) 
Cytochrome P450 2D6

>  <Target Organism>  (1) 
Homo sapiens

>  <Target Description>  (1) 
Target is a single protein chain

>  <Sequence Accession>  (1) 
P10635

>  <Reference>  (1) 
Bioorg Med Chem Lett 14 (9), 2025-2030 (2004)

>  <Pubmed ID>  (1) 
15080972

>  <DOI>  (1) 
10.1016/j.bmcl.2004.02.078

$$$$
