4wnv_ligand_7
     RDKit          2D

 37 40  0  0  0  0  0  0  0  0999 V2000
    0.0000   -0.0000   -0.0000 Cl  0  0  0  0  0  0  0  0  0  0  0  0
   -0.0119    1.5078   -0.0000 C   0  0  0  0  0  0  0  0  0  0  0  0
   -1.3179    2.2677   -0.0000 C   0  0  0  0  0  0  0  0  0  0  0  0
    1.2704    2.2677   -0.0000 C   0  0  0  0  0  0  0  0  0  0  0  0
   -1.3297    3.7755   -0.0000 C   0  0  0  0  0  0  0  0  0  0  0  0
    1.2585    3.7755   -0.0000 C   0  0  0  0  0  0  0  0  0  0  0  0
   -0.0475    4.5354   -0.0000 C   0  0  0  0  0  0  0  0  0  0  0  0
   -0.0594    6.0551   -0.0000 O   0  0  0  0  0  0  0  0  0  0  0  0
   -1.3654    6.8031   -0.0000 C   0  0  0  0  0  0  0  0  0  0  0  0
   -1.3772    8.3228   -0.0000 C   0  0  0  0  0  0  0  0  0  0  0  0
   -0.0950    9.0826   -0.0000 O   0  0  0  0  0  0  0  0  0  0  0  0
   -2.6832    9.0826   -0.0000 C   0  0  0  0  0  0  0  0  0  0  0  0
   -2.6951   10.5905   -0.0000 N   0  0  0  0  0  0  0  0  0  0  0  0
   -4.0011   11.3503   -0.0000 C   0  0  0  0  0  0  0  0  0  0  0  0
   -1.4129   11.3503   -0.0000 C   0  0  0  0  0  0  0  0  0  0  0  0
   -4.0130   12.8581   -0.0000 C   0  0  0  0  0  0  0  0  0  0  0  0
   -1.4247   12.8581   -0.0000 C   0  0  0  0  0  0  0  0  0  0  0  0
   -2.7307   13.6180   -0.0000 N   0  0  0  0  0  0  0  0  0  0  0  0
   -2.7426   15.1258   -0.0000 C   0  0  0  0  0  0  0  0  0  0  0  0
   -4.2029   15.5414   -0.0000 C   0  0  0  0  0  0  0  0  0  0  0  0
   -1.4603   15.8857   -0.0000 C   0  0  0  0  0  0  0  0  0  0  0  0
   -4.5947   17.0136   -0.0000 C   0  0  0  0  0  0  0  0  0  0  0  0
   -5.2834   14.4847   -0.0000 C   0  0  0  0  0  0  0  0  0  0  0  0
   -1.4722   17.4054   -0.0000 N   0  0  0  0  0  0  0  0  0  0  0  0
   -6.0670   17.4291   -0.0000 C   0  0  0  0  0  0  0  0  0  0  0  0
   -6.7437   14.8765   -0.0000 C   0  0  0  0  0  0  0  0  0  0  0  0
   -2.7782   18.1653   -0.0000 C   0  0  0  0  0  0  0  0  0  0  0  0
   -7.1592   16.3725   -0.0000 C   0  0  0  0  0  0  0  0  0  0  0  0
   -3.8230   17.6072   -0.0000 O   0  0  0  0  0  0  0  0  0  0  0  0
   -2.7901   19.6731   -0.0000 C   0  0  0  0  0  0  0  0  0  0  0  0
   -4.0961   20.4329   -0.0000 C   0  0  0  0  0  0  0  0  0  0  0  0
   -1.5078   20.4329   -0.0000 C   0  0  0  0  0  0  0  0  0  0  0  0
   -4.1080   21.9289   -0.0000 C   0  0  0  0  0  0  0  0  0  0  0  0
   -1.5197   21.9289   -0.0000 C   0  0  0  0  0  0  0  0  0  0  0  0
   -2.8257   22.7006   -0.0000 C   0  0  0  0  0  0  0  0  0  0  0  0
   -2.8376   24.1847   -0.0000 O   0  0  0  0  0  0  0  0  0  0  0  0
   -4.1554   24.9446   -0.0000 C   0  0  0  0  0  0  0  0  0  0  0  0
  1  2  1  0
  2  3  2  0
  2  4  1  0
  3  5  1  0
  4  6  2  0
  5  7  2  0
  7  8  1  0
  8  9  1  0
  9 10  1  0
 10 11  1  0
 10 12  1  0
 12 13  1  0
 13 14  1  0
 13 15  1  0
 14 16  1  0
 15 17  1  0
 16 18  1  0
 18 19  1  0
 19 20  1  0
 19 21  1  0
 20 22  2  0
 20 23  1  0
 21 24  1  0
 22 25  1  0
 23 26  2  0
 24 27  1  0
 25 28  2  0
 27 29  2  0
 27 30  1  0
 30 31  2  0
 30 32  1  0
 31 33  1  0
 32 34  2  0
 33 35  2  0
 35 36  1  0
 36 37  1  0
  6  7  1  0
 17 18  1  0
 26 28  1  0
 34 35  1  0
M  END
>  <MolRegNo>  (1) 
97457

>  <m>  (1) 
=

>  <Value>  (1) 
4000

>  <Unit>  (1) 
nM

>  <Type>  (1) 
Ki

>  <pValue>  (1) 
5.4

>  <Ligand Efficiency>  (1) 
0

>  <Binding Efficiency>  (1) 
0

>  <Surface Efficiency>  (1) 
0

>  <Assay Index>  (1) 
51650

>  <Assay Category>  (1) 


>  <Assay Organism>  (1) 


>  <Target ID>  (1) 
11365

>  <Target Name>  (1) 
Cytochrome P450 2D6

>  <Target Organism>  (1) 
Homo sapiens

>  <Target Description>  (1) 
Target is a single protein chain

>  <Sequence Accession>  (1) 
P10635

>  <Reference>  (1) 
Bioorg Med Chem Lett 14 (9), 2025-2030 (2004)

>  <Pubmed ID>  (1) 
15080972

>  <DOI>  (1) 
10.1016/j.bmcl.2004.02.078

$$$$
