4wnv_ligand_296
     RDKit          2D

 24 27  0  0  0  0  0  0  0  0999 V2000
    0.0000   -0.0000   -0.0000 O   0  0  0  0  0  0  0  0  0  0  0  0
    0.0000   -1.2211   -0.0000 C   0  0  0  0  0  0  0  0  0  0  0  0
   -1.3049   -1.9753   -0.0000 C   0  0  0  0  0  0  0  0  0  0  0  0
    1.2810   -1.9633   -0.0000 C   0  0  0  0  0  0  0  0  0  0  0  0
   -1.3169   -3.4478   -0.0000 C   0  0  0  0  0  0  0  0  0  0  0  0
   -2.5978   -1.2091   -0.0000 C   0  0  0  0  0  0  0  0  0  0  0  0
   -1.3169   -0.7303   -0.0000 C   0  0  0  0  0  0  0  0  0  0  0  0
    1.2690   -3.4718   -0.0000 C   0  0  0  0  0  0  0  0  0  0  0  0
   -2.6098   -4.1661   -0.0000 C   0  0  0  0  0  0  0  0  0  0  0  0
   -3.9027   -1.9514   -0.0000 C   0  0  0  0  0  0  0  0  0  0  0  0
   -3.9027   -3.4358   -0.0000 C   0  0  0  0  0  0  0  0  0  0  0  0
   -2.5978   -5.6386   -0.0000 C   0  0  0  0  0  0  0  0  0  0  0  0
   -5.1957   -4.1541   -0.0000 C   0  0  0  0  0  0  0  0  0  0  0  0
   -3.8908   -6.3928   -0.0000 C   0  0  0  0  0  0  0  0  0  0  0  0
   -5.2076   -5.6266   -0.0000 C   0  0  0  0  0  0  0  0  0  0  0  0
   -6.5245   -3.4239   -0.0000 C   0  0  0  0  0  0  0  0  0  0  0  0
   -6.5365   -4.9203   -0.0000 C   0  0  0  0  0  0  0  0  0  0  0  0
   -6.5125   -6.3808   -0.0000 C   0  0  0  0  0  0  0  0  0  0  0  0
   -7.7935   -4.1422   -0.0000 C   0  0  0  0  0  0  0  0  0  0  0  0
   -7.8893   -4.1422   -0.0000 O   0  0  0  0  0  0  0  0  0  0  0  0
   -7.8055   -5.6147   -0.0000 C   0  0  0  0  0  0  0  0  0  0  0  0
   -9.2301   -4.9083   -0.0000 C   0  0  0  0  0  0  0  0  0  0  0  0
  -10.3195   -4.2858   -0.0000 O   0  0  0  0  0  0  0  0  0  0  0  0
   -9.2301   -6.1294   -0.0000 C   0  0  0  0  0  0  0  0  0  0  0  0
  1  2  2  0
  2  3  1  0
  2  4  1  0
  3  5  1  0
  3  6  1  0
  3  7  1  6
  4  8  1  0
  5  9  1  0
  6 10  1  0
  9 11  1  0
  9 12  1  1
 11 13  1  0
 12 14  1  0
 13 15  1  0
 13 16  1  0
 13 17  1  6
 15 18  2  0
 16 19  1  0
 17 20  1  0
 18 21  1  0
 20 22  1  0
 22 23  2  0
 22 24  1  0
  5  8  1  6
 11 10  1  6
 14 15  1  0
 19 21  1  0
M  END
>  <MolRegNo>  (1) 
2058094

>  <m>  (1) 
=

>  <Value>  (1) 
170

>  <Unit>  (1) 
nM

>  <Type>  (1) 
Ki

>  <pValue>  (1) 
6.77

>  <Ligand Efficiency>  (1) 
0.39

>  <Binding Efficiency>  (1) 
20.48

>  <Surface Efficiency>  (1) 
15.61

>  <Assay Index>  (1) 
985527

>  <Assay Category>  (1) 


>  <Assay Organism>  (1) 
Homo sapiens

>  <Target ID>  (1) 
65

>  <Target Name>  (1) 
Cytochrome P450 19A1

>  <Target Organism>  (1) 
Homo sapiens

>  <Target Description>  (1) 
Target is a single protein chain

>  <Sequence Accession>  (1) 
P11511

>  <Reference>  (1) 


>  <Pubmed ID>  (1) 
26469743

>  <DOI>  (1) 
10.1016/j.ejmech.2015.09.038

$$$$
