4wnv_ligand_36
     RDKit          2D

 24 27  0  0  1  0  0  0  0  0999 V2000
    0.0000   -0.0000   -0.0000 Br  0  0  0  0  0  0  0  0  0  0  0  0
    0.3993   -1.4473   -0.0000 C   0  0  0  0  0  0  0  0  0  0  0  0
    1.6719   -2.1834   -0.0000 C   0  0  0  0  0  0  0  0  0  0  0  0
    1.7842   -0.5864   -0.0000 O   0  0  0  0  0  0  0  0  0  0  0  0
    1.6968   -3.6681   -0.0000 C   0  0  0  0  0  0  0  0  0  0  0  0
    1.6469   -5.1529   -0.0000 C   0  0  0  0  0  0  0  0  0  0  0  0
    2.9694   -2.9071   -0.0000 C   0  0  0  0  0  0  0  0  0  0  0  0
    0.3868   -2.9071   -0.0000 C   0  0  0  0  0  0  0  0  0  0  0  0
    0.3743   -5.8640   -0.0000 C   0  0  0  0  0  0  0  0  0  0  0  0
    2.9445   -5.8890   -0.0000 C   0  0  0  0  0  0  0  0  0  0  0  0
    4.2670   -3.6557   -0.0000 C   0  0  0  0  0  0  0  0  0  0  0  0
    2.9570   -1.3974   -0.0000 C   0  0  0  0  0  0  0  0  0  0  0  0
   -0.9233   -3.6432   -0.0000 C   0  0  0  0  0  0  0  0  0  0  0  0
   -0.9357   -5.1029   -0.0000 C   0  0  0  0  0  0  0  0  0  0  0  0
    4.2296   -5.1404   -0.0000 C   0  0  0  0  0  0  0  0  0  0  0  0
    5.5521   -2.8946   -0.0000 C   0  0  0  0  0  0  0  0  0  0  0  0
    4.2545   -0.6363   -0.0000 C   0  0  0  0  0  0  0  0  0  0  0  0
   -2.2458   -5.8391   -0.0000 O   0  0  0  0  0  0  0  0  0  0  0  0
    5.5521   -1.3724   -0.0000 C   0  0  0  0  0  0  0  0  0  0  0  0
    6.9620   -3.3562   -0.0000 C   0  0  0  0  0  0  0  0  0  0  0  0
    6.9744   -0.8983   -0.0000 C   0  0  0  0  0  0  0  0  0  0  0  0
    5.5272    0.1372   -0.0000 C   0  0  0  0  0  0  0  0  0  0  0  0
    7.8603   -2.1210   -0.0000 C   0  0  0  0  0  0  0  0  0  0  0  0
    7.4361    0.5365   -0.0000 O   0  0  0  0  0  0  0  0  0  0  0  0
  1  2  1  0
  2  3  1  0
  3  4  1  0
  5  3  1  1
  5  6  1  0
  5  7  1  0
  5  8  1  0
  6  9  2  0
  6 10  1  0
  7 11  1  0
  7 12  1  0
  8 13  1  0
  9 14  1  0
 10 15  1  0
 11 16  1  0
 12 17  1  0
 14 18  2  0
 16 19  1  0
 16 20  1  0
 19 21  1  0
 19 22  1  1
 20 23  1  0
 21 24  2  0
 11 15  1  0
 13 14  1  0
 17 19  1  0
 21 23  1  0
M  END
>  <MolRegNo>  (1) 
74407

>  <m>  (1) 
=

>  <Value>  (1) 
1130

>  <Unit>  (1) 
nM

>  <Type>  (1) 
Ki

>  <pValue>  (1) 
5.95

>  <Ligand Efficiency>  (1) 
0.34

>  <Binding Efficiency>  (1) 
15.04

>  <Surface Efficiency>  (1) 
10.94

>  <Assay Index>  (1) 
50926

>  <Assay Category>  (1) 


>  <Assay Organism>  (1) 
Homo sapiens

>  <Target ID>  (1) 
65

>  <Target Name>  (1) 
Cytochrome P450 19A1

>  <Target Organism>  (1) 
Homo sapiens

>  <Target Description>  (1) 
Target is a single protein chain

>  <Sequence Accession>  (1) 
P11511

>  <Reference>  (1) 
J Med Chem 34 (5), 1748-1750 (1991)

>  <Pubmed ID>  (1) 
2033599

>  <DOI>  (1) 
10.1021/jm00109a033

$$$$
