4wnv_ligand_182
     RDKit          2D

 25 27  0  0  0  0  0  0  0  0999 V2000
    0.0000   -0.0000   -0.0000 F   0  0  0  0  0  0  0  0  0  0  0  0
   -1.3081   -0.7492   -0.0000 C   0  0  0  0  0  0  0  0  0  0  0  0
   -1.3200   -2.2357   -0.0000 C   0  0  0  0  0  0  0  0  0  0  0  0
   -2.6281    0.0119   -0.0000 C   0  0  0  0  0  0  0  0  0  0  0  0
   -2.6281   -2.9730   -0.0000 C   0  0  0  0  0  0  0  0  0  0  0  0
   -3.9244   -0.7373   -0.0000 C   0  0  0  0  0  0  0  0  0  0  0  0
   -3.9363   -2.2119   -0.0000 C   0  0  0  0  0  0  0  0  0  0  0  0
   -5.2444   -2.9492   -0.0000 C   0  0  0  0  0  0  0  0  0  0  0  0
   -6.5525   -2.1881   -0.0000 O   0  0  0  0  0  0  0  0  0  0  0  0
   -5.2563   -4.4357   -0.0000 C   0  0  0  0  0  0  0  0  0  0  0  0
   -6.5644   -0.6778   -0.0000 C   0  0  0  0  0  0  0  0  0  0  0  0
   -6.5644   -5.1730   -0.0000 C   0  0  0  0  0  0  0  0  0  0  0  0
   -3.9600   -5.1730   -0.0000 C   0  0  0  0  0  0  0  0  0  0  0  0
   -7.8725    0.0832   -0.0000 O   0  0  0  0  0  0  0  0  0  0  0  0
   -7.8725   -4.4119   -0.0000 C   0  0  0  0  0  0  0  0  0  0  0  0
   -6.5763   -6.6714   -0.0000 C   0  0  0  0  0  0  0  0  0  0  0  0
   -3.9719   -6.6595   -0.0000 N   0  0  0  0  0  0  0  0  0  0  0  0
   -7.8844    1.5935   -0.0000 C   0  0  0  0  0  0  0  0  0  0  0  0
   -9.1806   -5.1492   -0.0000 C   0  0  0  0  0  0  0  0  0  0  0  0
   -7.8963   -7.4087   -0.0000 C   0  0  0  0  0  0  0  0  0  0  0  0
   -2.7589   -7.5158   -0.0000 N   0  0  0  0  0  0  0  0  0  0  0  0
   -5.1849   -7.5277   -0.0000 C   0  0  0  0  0  0  0  0  0  0  0  0
   -9.1925   -6.6476   -0.0000 C   0  0  0  0  0  0  0  0  0  0  0  0
   -3.2346   -8.9309   -0.0000 N   0  0  0  0  0  0  0  0  0  0  0  0
   -4.7330   -8.9428   -0.0000 C   0  0  0  0  0  0  0  0  0  0  0  0
  1  2  1  0
  2  3  2  0
  2  4  1  0
  3  5  1  0
  4  6  2  0
  5  7  2  0
  7  8  1  0
  8  9  1  6
  8 10  1  0
  9 11  1  0
 10 12  1  0
 10 13  1  1
 11 14  1  0
 12 15  2  0
 12 16  1  0
 13 17  1  0
 14 18  1  0
 15 19  1  0
 16 20  2  0
 17 21  1  0
 17 22  1  0
 19 23  2  0
 21 24  2  0
 22 25  2  0
  6  7  1  0
 20 23  1  0
 24 25  1  0
M  END
>  <MolRegNo>  (1) 
1589889

>  <m>  (1) 
=

>  <Value>  (1) 
160

>  <Unit>  (1) 
nM

>  <Type>  (1) 
Ki

>  <pValue>  (1) 
6.8

>  <Ligand Efficiency>  (1) 
0.37

>  <Binding Efficiency>  (1) 
19.91

>  <Surface Efficiency>  (1) 
13.82

>  <Assay Index>  (1) 
803886

>  <Assay Category>  (1) 


>  <Assay Organism>  (1) 
Homo sapiens

>  <Target ID>  (1) 
65

>  <Target Name>  (1) 
Cytochrome P450 19A1

>  <Target Organism>  (1) 
Homo sapiens

>  <Target Description>  (1) 
Target is a single protein chain

>  <Sequence Accession>  (1) 
P11511

>  <Reference>  (1) 
Bioorg Med Chem Lett 23 (22), 6060-6063 (2013)

>  <Pubmed ID>  (1) 
24113062

>  <DOI>  (1) 
10.1016/j.bmcl.2013.09.030

$$$$
