4wnv_ligand_53
     RDKit          2D

 24 27  0  0  0  0  0  0  0  0999 V2000
    0.0000   -0.0000   -0.0000 O   0  0  0  0  0  0  0  0  0  0  0  0
   -1.3447   -0.7502   -0.0000 C   0  0  0  0  0  0  0  0  0  0  0  0
   -0.0142    1.2456   -0.0000 C   0  0  0  0  0  0  0  0  0  0  0  0
   -2.6894    0.0283   -0.0000 C   0  0  0  0  0  0  0  0  0  0  0  0
   -1.3589   -2.2648   -0.0000 C   0  0  0  0  0  0  0  0  0  0  0  0
   -4.0200   -0.7219   -0.0000 C   0  0  0  0  0  0  0  0  0  0  0  0
   -2.6894   -3.0150   -0.0000 C   0  0  0  0  0  0  0  0  0  0  0  0
   -4.0341   -2.2365   -0.0000 C   0  0  0  0  0  0  0  0  0  0  0  0
   -5.3647    0.0566   -0.0000 C   0  0  0  0  0  0  0  0  0  0  0  0
   -5.3647   -2.9867   -0.0000 N   0  0  0  0  0  0  0  0  0  0  0  0
   -6.7236   -0.6936   -0.0000 C   0  0  0  0  0  0  0  0  0  0  0  0
   -5.3789    1.5995   -0.0000 C   0  0  0  0  0  0  0  0  0  0  0  0
   -6.7236   -2.2082   -0.0000 C   0  0  0  0  0  0  0  0  0  0  0  0
   -6.4546    2.2223   -0.0000 O   0  0  0  0  0  0  0  0  0  0  0  0
   -4.0625    2.3780   -0.0000 C   0  0  0  0  0  0  0  0  0  0  0  0
   -4.0625    3.9068   -0.0000 N   0  0  0  0  0  0  0  0  0  0  0  0
   -2.6894    1.5995   -0.0000 C   0  0  0  0  0  0  0  0  0  0  0  0
   -2.7602    4.7136   -0.0000 C   0  0  0  0  0  0  0  0  0  0  0  0
   -2.7602    4.0200   -0.0000 C   0  0  0  0  0  0  0  0  0  0  0  0
   -1.4013    2.3780   -0.0000 C   0  0  0  0  0  0  0  0  0  0  0  0
   -1.3872    3.9351   -0.0000 C   0  0  0  0  0  0  0  0  0  0  0  0
   -2.7461    2.2365   -0.0000 C   0  0  0  0  0  0  0  0  0  0  0  0
   -0.0849    4.7277   -0.0000 C   0  0  0  0  0  0  0  0  0  0  0  0
   -0.1132    5.9734   -0.0000 C   0  0  0  0  0  0  0  0  0  0  0  0
  1  2  1  0
  1  3  1  0
  2  4  2  0
  2  5  1  0
  4  6  1  0
  5  7  2  0
  6  8  2  0
  6  9  1  0
  8 10  1  0
  9 11  2  0
  9 12  1  0
 10 13  2  0
 12 14  1  1
 12 15  1  0
 15 16  1  0
 15 17  1  0
 16 18  1  0
 16 19  1  0
 17 20  1  0
 18 21  1  0
 19 22  1  0
 21 23  1  0
 23 24  1  0
  7  8  1  0
 11 13  1  0
 20 21  1  0
 20 22  1  0
M  END
>  <MolRegNo>  (1) 
1367928

>  <m>  (1) 
=

>  <Value>  (1) 
66

>  <Unit>  (1) 
nM

>  <Type>  (1) 
Ki

>  <pValue>  (1) 
7.18

>  <Ligand Efficiency>  (1) 
0

>  <Binding Efficiency>  (1) 
0

>  <Surface Efficiency>  (1) 
0

>  <Assay Index>  (1) 
122804

>  <Assay Category>  (1) 


>  <Assay Organism>  (1) 
Homo sapiens

>  <Target ID>  (1) 
11365

>  <Target Name>  (1) 
Cytochrome P450 2D6

>  <Target Organism>  (1) 
Homo sapiens

>  <Target Description>  (1) 
Target is a single protein chain

>  <Sequence Accession>  (1) 
P10635

>  <Reference>  (1) 
J Med Chem 36 (9), 1136-1145 (1993)

>  <Pubmed ID>  (1) 
8487254

>  <DOI>  (1) 
10.1021/jm00061a004

$$$$
