4wnv_ligand_333
     RDKit          2D

 28 32  0  0  0  0  0  0  0  0999 V2000
    0.0000   -0.0000   -0.0000 O   0  0  0  0  0  0  0  0  0  0  0  0
    1.0571    0.6302   -0.0000 C   0  0  0  0  0  0  0  0  0  0  0  0
    2.3175   -0.1016   -0.0000 C   0  0  0  0  0  0  0  0  0  0  0  0
    1.0368    2.1346   -0.0000 C   0  0  0  0  0  0  0  0  0  0  0  0
    3.5779    0.6912   -0.0000 C   0  0  0  0  0  0  0  0  0  0  0  0
    2.2769    2.8867   -0.0000 C   0  0  0  0  0  0  0  0  0  0  0  0
    4.8587   -0.0407   -0.0000 C   0  0  0  0  0  0  0  0  0  0  0  0
    3.5576    2.1956   -0.0000 C   0  0  0  0  0  0  0  0  0  0  0  0
    6.1191    0.7522   -0.0000 C   0  0  0  0  0  0  0  0  0  0  0  0
    4.8180    2.9477   -0.0000 C   0  0  0  0  0  0  0  0  0  0  0  0
    3.5169    3.4560   -0.0000 C   0  0  0  0  0  0  0  0  0  0  0  0
    6.0784    2.2565   -0.0000 C   0  0  0  0  0  0  0  0  0  0  0  0
    7.4405    0.0203   -0.0000 C   0  0  0  0  0  0  0  0  0  0  0  0
    4.7774    4.4724   -0.0000 C   0  0  0  0  0  0  0  0  0  0  0  0
    7.3388    3.0087   -0.0000 C   0  0  0  0  0  0  0  0  0  0  0  0
    7.4405   -1.5044   -0.0000 C   0  0  0  0  0  0  0  0  0  0  0  0
    6.0378    5.2449   -0.0000 C   0  0  0  0  0  0  0  0  0  0  0  0
    7.3185    4.5131   -0.0000 C   0  0  0  0  0  0  0  0  0  0  0  0
    9.9003    3.0087   -0.0000 C   0  0  0  0  0  0  0  0  0  0  0  0
    6.0988   -2.2769   -0.0000 C   0  0  0  0  0  0  0  0  0  0  0  0
    8.7619   -2.2362   -0.0000 C   0  0  0  0  0  0  0  0  0  0  0  0
    8.5789    5.3059   -0.0000 C   0  0  0  0  0  0  0  0  0  0  0  0
    7.2982    5.7735   -0.0000 C   0  0  0  0  0  0  0  0  0  0  0  0
    9.8800    4.5537   -0.0000 C   0  0  0  0  0  0  0  0  0  0  0  0
    6.0988   -3.8016   -0.0000 C   0  0  0  0  0  0  0  0  0  0  0  0
    8.7619   -3.7609   -0.0000 C   0  0  0  0  0  0  0  0  0  0  0  0
    8.5586    6.5663   -0.0000 O   0  0  0  0  0  0  0  0  0  0  0  0
    7.4202   -4.5334   -0.0000 C   0  0  0  0  0  0  0  0  0  0  0  0
  1  2  2  0
  2  3  1  0
  2  4  1  0
  3  5  2  0
  4  6  2  0
  5  7  1  0
  5  8  1  0
  7  9  2  0
  8 10  1  0
  8 11  1  1
 12  9  1  6
  9 13  1  0
 10 14  1  1
 12 15  1  0
 13 16  1  0
 14 17  1  0
 15 18  1  0
 15 19  1  1
 16 20  2  0
 16 21  1  0
 18 22  1  0
 18 23  1  1
 19 24  1  0
 20 25  1  0
 21 26  2  0
 22 27  2  0
 25 28  2  0
  6  8  1  0
 10 12  1  0
 17 18  1  0
 22 24  1  0
 26 28  1  0
M  END
>  <MolRegNo>  (1) 
2057973

>  <m>  (1) 
=

>  <Value>  (1) 
60.9

>  <Unit>  (1) 
nM

>  <Type>  (1) 
Ki

>  <pValue>  (1) 
7.21

>  <Ligand Efficiency>  (1) 
0.35

>  <Binding Efficiency>  (1) 
19.37

>  <Surface Efficiency>  (1) 
21.13

>  <Assay Index>  (1) 
985538

>  <Assay Category>  (1) 


>  <Assay Organism>  (1) 
Homo sapiens

>  <Target ID>  (1) 
65

>  <Target Name>  (1) 
Cytochrome P450 19A1

>  <Target Organism>  (1) 
Homo sapiens

>  <Target Description>  (1) 
Target is a single protein chain

>  <Sequence Accession>  (1) 
P11511

>  <Reference>  (1) 


>  <Pubmed ID>  (1) 
26469743

>  <DOI>  (1) 
10.1016/j.ejmech.2015.09.038

$$$$
