4wnv_ligand_136
     RDKit          2D

 16 18  0  0  0  0  0  0  0  0999 V2000
    0.0000   -0.0000   -0.0000 S   0  0  0  0  0  0  0  0  0  0  0  0
   -1.5135   -0.3902   -0.0000 C   0  0  0  0  0  0  0  0  0  0  0  0
    0.0000    1.5016   -0.0000 C   0  0  0  0  0  0  0  0  0  0  0  0
   -2.3411    0.8750   -0.0000 S   0  0  0  0  0  0  0  0  0  0  0  0
   -2.0574   -1.7736   -0.0000 C   0  0  0  0  0  0  0  0  0  0  0  0
   -1.4070    2.0455   -0.0000 C   0  0  0  0  0  0  0  0  0  0  0  0
   -3.5117   -2.1520   -0.0000 O   0  0  0  0  0  0  0  0  0  0  0  0
   -1.2533   -3.0151   -0.0000 C   0  0  0  0  0  0  0  0  0  0  0  0
   -3.6063   -3.6181   -0.0000 C   0  0  0  0  0  0  0  0  0  0  0  0
   -2.1992   -4.1620   -0.0000 C   0  0  0  0  0  0  0  0  0  0  0  0
   -4.8715   -4.4221   -0.0000 C   0  0  0  0  0  0  0  0  0  0  0  0
   -4.8833   -5.9120   -0.0000 C   0  0  0  0  0  0  0  0  0  0  0  0
   -6.1721   -3.6654   -0.0000 C   0  0  0  0  0  0  0  0  0  0  0  0
   -6.1957   -6.6450   -0.0000 N   0  0  0  0  0  0  0  0  0  0  0  0
   -7.4727   -4.3985   -0.0000 C   0  0  0  0  0  0  0  0  0  0  0  0
   -7.4964   -5.8883   -0.0000 C   0  0  0  0  0  0  0  0  0  0  0  0
  1  2  1  0
  1  3  1  0
  2  4  1  0
  2  5  1  0
  3  6  1  0
  5  7  1  0
  5  8  2  0
  7  9  1  0
  8 10  1  0
  9 11  1  0
 11 12  2  0
 11 13  1  0
 12 14  1  0
 13 15  2  0
 14 16  2  0
  4  6  1  0
  9 10  2  0
 15 16  1  0
M  END
>  <MolRegNo>  (1) 
361861

>  <m>  (1) 
=

>  <Value>  (1) 
38400

>  <Unit>  (1) 
nM

>  <Type>  (1) 
Ki

>  <pValue>  (1) 
4.42

>  <Ligand Efficiency>  (1) 
0

>  <Binding Efficiency>  (1) 
0

>  <Surface Efficiency>  (1) 
0

>  <Assay Index>  (1) 
269558

>  <Assay Category>  (1) 


>  <Assay Organism>  (1) 
Homo sapiens

>  <Target ID>  (1) 
11365

>  <Target Name>  (1) 
Cytochrome P450 2D6

>  <Target Organism>  (1) 
Homo sapiens

>  <Target Description>  (1) 
Target is a single protein chain

>  <Sequence Accession>  (1) 
P10635

>  <Reference>  (1) 
J Med Chem 49 (24), 6987-7001 (2006)

>  <Pubmed ID>  (1) 
17125252

>  <DOI>  (1) 
10.1021/jm060519r

$$$$
