4wnv_ligand_297
     RDKit          2D

 22 25  0  0  0  0  0  0  0  0999 V2000
    0.0000   -0.0000   -0.0000 F   0  0  0  0  0  0  0  0  0  0  0  0
   -0.0204    1.2647   -0.0000 C   0  0  0  0  0  0  0  0  0  0  0  0
   -1.1219    1.8970   -0.0000 F   0  0  0  0  0  0  0  0  0  0  0  0
    1.2851    2.0602   -0.0000 C   0  0  0  0  0  0  0  0  0  0  0  0
    1.2647    0.5916   -0.0000 C   0  0  0  0  0  0  0  0  0  0  0  0
    2.5498    2.8150   -0.0000 C   0  0  0  0  0  0  0  0  0  0  0  0
   -0.0408    2.7946   -0.0000 C   0  0  0  0  0  0  0  0  0  0  0  0
   -0.0408   -0.1632   -0.0000 C   0  0  0  0  0  0  0  0  0  0  0  0
    2.5498   -0.1428   -0.0000 C   0  0  0  0  0  0  0  0  0  0  0  0
    3.8145    2.1214   -0.0000 C   0  0  0  0  0  0  0  0  0  0  0  0
    2.5090    4.3448   -0.0000 C   0  0  0  0  0  0  0  0  0  0  0  0
   -1.3259    2.0806   -0.0000 C   0  0  0  0  0  0  0  0  0  0  0  0
   -1.3463    0.6119   -0.0000 C   0  0  0  0  0  0  0  0  0  0  0  0
    3.8145    0.6527   -0.0000 C   0  0  0  0  0  0  0  0  0  0  0  0
    5.0792    2.8762   -0.0000 C   0  0  0  0  0  0  0  0  0  0  0  0
    3.7737    5.1200   -0.0000 C   0  0  0  0  0  0  0  0  0  0  0  0
    5.0588    4.3856   -0.0000 C   0  0  0  0  0  0  0  0  0  0  0  0
    7.6494    2.8762   -0.0000 C   0  0  0  0  0  0  0  0  0  0  0  0
    6.3235    5.1812   -0.0000 C   0  0  0  0  0  0  0  0  0  0  0  0
    5.0384    5.6503   -0.0000 C   0  0  0  0  0  0  0  0  0  0  0  0
    7.6290    4.4264   -0.0000 C   0  0  0  0  0  0  0  0  0  0  0  0
    6.3031    6.4459   -0.0000 O   0  0  0  0  0  0  0  0  0  0  0  0
  1  2  1  0
  2  3  1  0
  4  2  1  1
  4  5  1  0
  4  6  1  0
  4  7  1  0
  5  8  2  0
  5  9  1  0
  6 10  1  0
  6 11  1  1
  7 12  1  0
  8 13  1  0
  9 14  1  0
 10 15  1  0
 11 16  1  0
 15 17  1  0
 15 18  1  1
 17 19  1  0
 17 20  1  1
 18 21  1  0
 19 22  2  0
 10 14  1  6
 12 13  1  0
 16 17  1  0
 19 21  1  0
M  END
>  <MolRegNo>  (1) 
2058095

>  <m>  (1) 
=

>  <Value>  (1) 
170

>  <Unit>  (1) 
nM

>  <Type>  (1) 
Ki

>  <pValue>  (1) 
6.77

>  <Ligand Efficiency>  (1) 
0.42

>  <Binding Efficiency>  (1) 
21.95

>  <Surface Efficiency>  (1) 
39.66

>  <Assay Index>  (1) 
985527

>  <Assay Category>  (1) 


>  <Assay Organism>  (1) 
Homo sapiens

>  <Target ID>  (1) 
65

>  <Target Name>  (1) 
Cytochrome P450 19A1

>  <Target Organism>  (1) 
Homo sapiens

>  <Target Description>  (1) 
Target is a single protein chain

>  <Sequence Accession>  (1) 
P11511

>  <Reference>  (1) 


>  <Pubmed ID>  (1) 
26469743

>  <DOI>  (1) 
10.1016/j.ejmech.2015.09.038

$$$$
