4wnv_ligand_209
     RDKit          2D

 23 26  0  0  0  0  0  0  0  0999 V2000
    0.0000   -0.0000   -0.0000 O   0  0  0  0  0  0  0  0  0  0  0  0
   -0.0411    1.2737   -0.0000 C   0  0  0  0  0  0  0  0  0  0  0  0
   -1.3764    2.0543   -0.0000 C   0  0  0  0  0  0  0  0  0  0  0  0
    1.2326    2.0749   -0.0000 C   0  0  0  0  0  0  0  0  0  0  0  0
   -2.6912    1.2942   -0.0000 C   0  0  0  0  0  0  0  0  0  0  0  0
   -1.3969    3.5745   -0.0000 C   0  0  0  0  0  0  0  0  0  0  0  0
    1.1915    3.5951   -0.0000 C   0  0  0  0  0  0  0  0  0  0  0  0
   -4.0060    2.0749   -0.0000 C   0  0  0  0  0  0  0  0  0  0  0  0
   -0.1233    4.3347   -0.0000 C   0  0  0  0  0  0  0  0  0  0  0  0
   -2.7323    4.3141   -0.0000 C   0  0  0  0  0  0  0  0  0  0  0  0
   -1.4380    4.8482   -0.0000 C   0  0  0  0  0  0  0  0  0  0  0  0
    2.4652    4.3552   -0.0000 C   0  0  0  0  0  0  0  0  0  0  0  0
   -5.1153    1.4791   -0.0000 O   0  0  0  0  0  0  0  0  0  0  0  0
   -4.0265    3.5951   -0.0000 C   0  0  0  0  0  0  0  0  0  0  0  0
   -0.1643    5.8754   -0.0000 C   0  0  0  0  0  0  0  0  0  0  0  0
    2.4447    5.8754   -0.0000 C   0  0  0  0  0  0  0  0  0  0  0  0
    5.0537    4.3552   -0.0000 C   0  0  0  0  0  0  0  0  0  0  0  0
    1.1093    6.6561   -0.0000 C   0  0  0  0  0  0  0  0  0  0  0  0
    3.7184    6.6766   -0.0000 C   0  0  0  0  0  0  0  0  0  0  0  0
    2.4241    7.1491   -0.0000 C   0  0  0  0  0  0  0  0  0  0  0  0
    5.0331    5.9165   -0.0000 C   0  0  0  0  0  0  0  0  0  0  0  0
    3.6978    7.9503   -0.0000 O   0  0  0  0  0  0  0  0  0  0  0  0
    6.0808    6.5533   -0.0000 O   0  0  0  0  0  0  0  0  0  0  0  0
  1  2  2  0
  2  3  1  0
  2  4  1  0
  3  5  2  0
  3  6  1  0
  7  4  1  1
  5  8  1  0
  6  9  1  0
  6 10  1  0
  6 11  1  6
  7 12  1  0
  8 13  2  0
  8 14  1  0
  9 15  1  6
 12 16  1  0
 12 17  1  6
 15 18  1  0
 16 19  1  0
 16 20  1  6
 17 21  1  0
 19 22  2  0
 21 23  1  1
  7  9  1  0
 10 14  1  0
 16 18  1  0
 19 21  1  0
M  END
>  <MolRegNo>  (1) 
2058228

>  <m>  (1) 
=

>  <Value>  (1) 
1180

>  <Unit>  (1) 
nM

>  <Type>  (1) 
Ki

>  <pValue>  (1) 
5.93

>  <Ligand Efficiency>  (1) 
0.35

>  <Binding Efficiency>  (1) 
18.74

>  <Surface Efficiency>  (1) 
8.3

>  <Assay Index>  (1) 
985352

>  <Assay Category>  (1) 


>  <Assay Organism>  (1) 
Homo sapiens

>  <Target ID>  (1) 
65

>  <Target Name>  (1) 
Cytochrome P450 19A1

>  <Target Organism>  (1) 
Homo sapiens

>  <Target Description>  (1) 
Target is a single protein chain

>  <Sequence Accession>  (1) 
P11511

>  <Reference>  (1) 


>  <Pubmed ID>  (1) 
26469743

>  <DOI>  (1) 
10.1016/j.ejmech.2015.09.038

$$$$
