4wnv_ligand_217
     RDKit          2D

 32 36  0  0  0  0  0  0  0  0999 V2000
    0.0000   -0.0000   -0.0000 S   0  0  0  0  0  0  0  0  0  0  0  0
   -0.0409   -1.2284   -0.0000 O   0  0  0  0  0  0  0  0  0  0  0  0
   -1.0851    0.6551   -0.0000 O   0  0  0  0  0  0  0  0  0  0  0  0
    1.3308    0.7780   -0.0000 O   0  0  0  0  0  0  0  0  0  0  0  0
   -1.1056   -0.5937   -0.0000 N   0  0  0  0  0  0  0  0  0  0  0  0
    1.3308    2.3544   -0.0000 C   0  0  0  0  0  0  0  0  0  0  0  0
   -0.0205    3.1529   -0.0000 C   0  0  0  0  0  0  0  0  0  0  0  0
    2.6615    3.1324   -0.0000 C   0  0  0  0  0  0  0  0  0  0  0  0
   -0.0409    4.7293   -0.0000 C   0  0  0  0  0  0  0  0  0  0  0  0
    2.6411    4.7089   -0.0000 C   0  0  0  0  0  0  0  0  0  0  0  0
    1.2898    5.5073   -0.0000 C   0  0  0  0  0  0  0  0  0  0  0  0
    1.2693    7.0838   -0.0000 C   0  0  0  0  0  0  0  0  0  0  0  0
   -0.0409    7.8618   -0.0000 C   0  0  0  0  0  0  0  0  0  0  0  0
    2.5387    7.8822   -0.0000 C   0  0  0  0  0  0  0  0  0  0  0  0
   -1.1465    7.2680   -0.0000 O   0  0  0  0  0  0  0  0  0  0  0  0
   -0.0614    9.3768   -0.0000 C   0  0  0  0  0  0  0  0  0  0  0  0
    2.5182    9.3973   -0.0000 C   0  0  0  0  0  0  0  0  0  0  0  0
    3.8285    7.1452   -0.0000 C   0  0  0  0  0  0  0  0  0  0  0  0
    1.1875   10.1343   -0.0000 C   0  0  0  0  0  0  0  0  0  0  0  0
    3.7876   10.1548   -0.0000 C   0  0  0  0  0  0  0  0  0  0  0  0
    2.4773   10.6666   -0.0000 C   0  0  0  0  0  0  0  0  0  0  0  0
    5.0979    7.9437   -0.0000 C   0  0  0  0  0  0  0  0  0  0  0  0
    5.0569    9.4587   -0.0000 C   0  0  0  0  0  0  0  0  0  0  0  0
    3.7466   11.6903   -0.0000 C   0  0  0  0  0  0  0  0  0  0  0  0
    6.3263   10.2162   -0.0000 C   0  0  0  0  0  0  0  0  0  0  0  0
    5.0160   12.4683   -0.0000 C   0  0  0  0  0  0  0  0  0  0  0  0
    6.3058   11.7312   -0.0000 C   0  0  0  0  0  0  0  0  0  0  0  0
    8.9059   10.2162   -0.0000 C   0  0  0  0  0  0  0  0  0  0  0  0
    7.5751   12.5297   -0.0000 C   0  0  0  0  0  0  0  0  0  0  0  0
    6.2853   13.0006   -0.0000 C   0  0  0  0  0  0  0  0  0  0  0  0
    8.8854   11.7722   -0.0000 C   0  0  0  0  0  0  0  0  0  0  0  0
    7.5547   13.7990   -0.0000 O   0  0  0  0  0  0  0  0  0  0  0  0
  1  2  2  0
  1  3  2  0
  1  4  1  0
  1  5  1  0
  4  6  1  0
  6  7  2  0
  6  8  1  0
  7  9  1  0
  8 10  2  0
  9 11  2  0
 11 12  1  0
 12 13  1  0
 12 14  2  0
 13 15  2  0
 13 16  1  0
 14 17  1  0
 14 18  1  0
 16 19  1  0
 17 20  1  0
 17 21  1  6
 18 22  1  0
 20 23  1  0
 20 24  1  6
 23 25  1  0
 24 26  1  0
 25 27  1  0
 25 28  1  6
 27 29  1  0
 27 30  1  6
 28 31  1  0
 29 32  2  0
 10 11  1  0
 17 19  1  0
 23 22  1  1
 26 27  1  0
 29 31  1  0
M  END
>  <MolRegNo>  (1) 
2057835

>  <m>  (1) 
=

>  <Value>  (1) 
97

>  <Unit>  (1) 
nM

>  <Type>  (1) 
Ki

>  <pValue>  (1) 
7.01

>  <Ligand Efficiency>  (1) 
0.3

>  <Binding Efficiency>  (1) 
15.33

>  <Surface Efficiency>  (1) 
6.77

>  <Assay Index>  (1) 
985353

>  <Assay Category>  (1) 


>  <Assay Organism>  (1) 
Homo sapiens

>  <Target ID>  (1) 
65

>  <Target Name>  (1) 
Cytochrome P450 19A1

>  <Target Organism>  (1) 
Homo sapiens

>  <Target Description>  (1) 
Target is a single protein chain

>  <Sequence Accession>  (1) 
P11511

>  <Reference>  (1) 


>  <Pubmed ID>  (1) 
26469743

>  <DOI>  (1) 
10.1016/j.ejmech.2015.09.038

$$$$
