4wnv_ligand_394
     RDKit          2D

 29 32  0  0  1  0  0  0  0  0999 V2000
    0.0000   -0.0000   -0.0000 O   0  0  0  0  0  0  0  0  0  0  0  0
   -0.0198    1.4852   -0.0000 C   0  0  0  0  0  0  0  0  0  0  0  0
   -1.3267    2.2376   -0.0000 O   0  0  0  0  0  0  0  0  0  0  0  0
    1.2079    2.2574   -0.0000 C   0  0  0  0  0  0  0  0  0  0  0  0
   -2.6139    1.5248   -0.0000 C   0  0  0  0  0  0  0  0  0  0  0  0
    2.4555    1.5248   -0.0000 C   0  0  0  0  0  0  0  0  0  0  0  0
    1.1881    3.7228   -0.0000 C   0  0  0  0  0  0  0  0  0  0  0  0
    3.6832    2.2970   -0.0000 O   0  0  0  0  0  0  0  0  0  0  0  0
    2.4356    4.4555   -0.0000 C   0  0  0  0  0  0  0  0  0  0  0  0
   -0.0792    4.4555   -0.0000 C   0  0  0  0  0  0  0  0  0  0  0  0
    4.9505    1.6238   -0.0000 C   0  0  0  0  0  0  0  0  0  0  0  0
    2.4158    5.9604   -0.0000 C   0  0  0  0  0  0  0  0  0  0  0  0
    3.6634    3.7624   -0.0000 C   0  0  0  0  0  0  0  0  0  0  0  0
   -0.0990    5.9604   -0.0000 C   0  0  0  0  0  0  0  0  0  0  0  0
    1.1287    6.6931   -0.0000 N   0  0  0  0  0  0  0  0  0  0  0  0
    4.9109    4.5149   -0.0000 C   0  0  0  0  0  0  0  0  0  0  0  0
   -1.4059    6.6931   -0.0000 C   0  0  0  0  0  0  0  0  0  0  0  0
    1.1089    8.1782   -0.0000 C   0  0  0  0  0  0  0  0  0  0  0  0
   -2.6931    6.0000   -0.0000 N   0  0  0  0  0  0  0  0  0  0  0  0
   -1.4257    8.1782   -0.0000 C   0  0  0  0  0  0  0  0  0  0  0  0
   -0.1584    8.9109   -0.0000 C   0  0  0  0  0  0  0  0  0  0  0  0
   -3.9604    6.7327   -0.0000 C   0  0  0  0  0  0  0  0  0  0  0  0
   -3.9604    8.1980   -0.0000 C   0  0  0  0  0  0  0  0  0  0  0  0
   -5.2277    6.0396   -0.0000 C   0  0  0  0  0  0  0  0  0  0  0  0
   -5.2277    8.9307   -0.0000 C   0  0  0  0  0  0  0  0  0  0  0  0
   -6.5347    6.7723   -0.0000 C   0  0  0  0  0  0  0  0  0  0  0  0
   -5.2475   10.4159   -0.0000 O   0  0  0  0  0  0  0  0  0  0  0  0
   -6.5347    8.2376   -0.0000 C   0  0  0  0  0  0  0  0  0  0  0  0
   -4.0198   11.1485   -0.0000 C   0  0  0  0  0  0  0  0  0  0  0  0
  1  2  2  0
  2  3  1  0
  2  4  1  0
  3  5  1  0
  4  6  2  0
  7  4  1  1
  6  8  1  0
  7  9  1  0
  7 10  1  0
  8 11  1  0
  9 12  1  0
  9 13  1  1
 14 10  1  1
 12 15  1  0
 13 16  1  0
 14 17  1  0
 15 18  1  0
 17 19  1  0
 17 20  2  0
 18 21  1  0
 19 22  1  0
 20 23  1  0
 22 24  2  0
 23 25  2  0
 24 26  1  0
 25 27  1  0
 25 28  1  0
 27 29  1  0
 14 15  1  0
 20 21  1  0
 22 23  1  0
 26 28  2  0
M  END
>  <MolRegNo>  (1) 
92231

>  <m>  (1) 
=

>  <Value>  (1) 
1100

>  <Unit>  (1) 
nM

>  <Type>  (1) 
Ki

>  <pValue>  (1) 
5.96

>  <Ligand Efficiency>  (1) 
0

>  <Binding Efficiency>  (1) 
0

>  <Surface Efficiency>  (1) 
0

>  <Assay Index>  (1) 
1479365

>  <Assay Category>  (1) 


>  <Assay Organism>  (1) 
Homo sapiens

>  <Target ID>  (1) 
11365

>  <Target Name>  (1) 
Cytochrome P450 2D6

>  <Target Organism>  (1) 
Homo sapiens

>  <Target Description>  (1) 
Target is a single protein chain

>  <Sequence Accession>  (1) 
P10635

>  <Reference>  (1) 
J Nat Prod 84 (4.0), 1104-1112 (2021)

>  <Pubmed ID>  (1) 
33620222

>  <DOI>  (1) 
10.1021/acs.jnatprod.0c01163

$$$$
