4wnv_ligand_148
     RDKit          2D

 24 27  0  0  0  0  0  0  0  0999 V2000
    0.0000   -0.0000   -0.0000 O   0  0  0  0  0  0  0  0  0  0  0  0
    1.1095    1.0140   -0.0000 C   0  0  0  0  0  0  0  0  0  0  0  0
    0.5965   -1.3600   -0.0000 C   0  0  0  0  0  0  0  0  0  0  0  0
    2.3979    0.2744   -0.0000 C   0  0  0  0  0  0  0  0  0  0  0  0
    1.0975    2.5291   -0.0000 C   0  0  0  0  0  0  0  0  0  0  0  0
    2.0758   -1.1930   -0.0000 O   0  0  0  0  0  0  0  0  0  0  0  0
    3.6983    1.0379   -0.0000 C   0  0  0  0  0  0  0  0  0  0  0  0
    2.3860    3.2926   -0.0000 C   0  0  0  0  0  0  0  0  0  0  0  0
    3.6863    2.5649   -0.0000 C   0  0  0  0  0  0  0  0  0  0  0  0
    2.3740    4.8077   -0.0000 O   0  0  0  0  0  0  0  0  0  0  0  0
    4.9747    3.3284   -0.0000 C   0  0  0  0  0  0  0  0  0  0  0  0
    4.9628    4.8435   -0.0000 N   0  0  0  0  0  0  0  0  0  0  0  0
    6.2632    2.5888   -0.0000 C   0  0  0  0  0  0  0  0  0  0  0  0
    6.1677    5.7383   -0.0000 C   0  0  0  0  0  0  0  0  0  0  0  0
    3.7340    5.7263   -0.0000 C   0  0  0  0  0  0  0  0  0  0  0  0
    6.2512    1.0975   -0.0000 C   0  0  0  0  0  0  0  0  0  0  0  0
    7.5397    3.3642   -0.0000 C   0  0  0  0  0  0  0  0  0  0  0  0
    5.6905    7.1818   -0.0000 N   0  0  0  0  0  0  0  0  0  0  0  0
    4.1874    7.1698   -0.0000 C   0  0  0  0  0  0  0  0  0  0  0  0
    7.5516    0.3698   -0.0000 C   0  0  0  0  0  0  0  0  0  0  0  0
    8.8281    2.6365   -0.0000 C   0  0  0  0  0  0  0  0  0  0  0  0
    8.8400    1.1333   -0.0000 C   0  0  0  0  0  0  0  0  0  0  0  0
    9.9495    0.1432   -0.0000 O   0  0  0  0  0  0  0  0  0  0  0  0
    9.6274   -1.3123   -0.0000 C   0  0  0  0  0  0  0  0  0  0  0  0
  1  2  1  0
  1  3  1  0
  2  4  2  0
  2  5  1  0
  3  6  1  0
  4  7  1  0
  5  8  2  0
  7  9  2  0
  8 10  1  0
  9 11  1  0
 11 12  1  0
 11 13  1  0
 12 14  1  0
 12 15  1  0
 13 16  2  0
 13 17  1  0
 14 18  2  0
 15 19  2  0
 16 20  1  0
 17 21  2  0
 20 22  2  0
 22 23  1  0
 23 24  1  0
  4  6  1  0
  8  9  1  0
 18 19  1  0
 21 22  1  0
M  END
>  <MolRegNo>  (1) 
494218

>  <m>  (1) 
=

>  <Value>  (1) 
13.1

>  <Unit>  (1) 
nM

>  <Type>  (1) 
Ki

>  <pValue>  (1) 
7.88

>  <Ligand Efficiency>  (1) 
0.45

>  <Binding Efficiency>  (1) 
24.3

>  <Surface Efficiency>  (1) 
11.99

>  <Assay Index>  (1) 
409655

>  <Assay Category>  (1) 


>  <Assay Organism>  (1) 
Homo sapiens

>  <Target ID>  (1) 
65

>  <Target Name>  (1) 
Cytochrome P450 19A1

>  <Target Organism>  (1) 
Homo sapiens

>  <Target Description>  (1) 
Target is a single protein chain

>  <Sequence Accession>  (1) 
P11511

>  <Reference>  (1) 
J Med Chem 52 (1), 143-150 (2009)

>  <Pubmed ID>  (1) 
19072235

>  <DOI>  (1) 
10.1021/jm800945c

$$$$
