4wnv_ligand_284
     RDKit          2D

 24 27  0  0  0  0  0  0  0  0999 V2000
    0.0000   -0.0000   -0.0000 S   0  0  0  0  0  0  0  0  0  0  0  0
   -0.0204    1.5745   -0.0000 C   0  0  0  0  0  0  0  0  0  0  0  0
   -1.3700   -0.7566   -0.0000 C   0  0  0  0  0  0  0  0  0  0  0  0
   -1.3291    2.3515   -0.0000 C   0  0  0  0  0  0  0  0  0  0  0  0
    1.2473    2.3719   -0.0000 C   0  0  0  0  0  0  0  0  0  0  0  0
   -1.3904   -1.9834   -0.0000 C   0  0  0  0  0  0  0  0  0  0  0  0
   -2.4333    1.7585   -0.0000 O   0  0  0  0  0  0  0  0  0  0  0  0
   -1.3495    3.8646   -0.0000 C   0  0  0  0  0  0  0  0  0  0  0  0
    1.2269    3.8850   -0.0000 C   0  0  0  0  0  0  0  0  0  0  0  0
    2.5355    1.6358   -0.0000 C   0  0  0  0  0  0  0  0  0  0  0  0
   -0.1022    4.6212   -0.0000 C   0  0  0  0  0  0  0  0  0  0  0  0
    2.4946    4.6416   -0.0000 C   0  0  0  0  0  0  0  0  0  0  0  0
    1.1860    5.1528   -0.0000 C   0  0  0  0  0  0  0  0  0  0  0  0
    3.8033    2.4333   -0.0000 C   0  0  0  0  0  0  0  0  0  0  0  0
    3.7624    3.9464   -0.0000 C   0  0  0  0  0  0  0  0  0  0  0  0
    2.4537    6.1752   -0.0000 C   0  0  0  0  0  0  0  0  0  0  0  0
    5.0301    4.7030   -0.0000 C   0  0  0  0  0  0  0  0  0  0  0  0
    3.7215    6.9522   -0.0000 C   0  0  0  0  0  0  0  0  0  0  0  0
    5.0097    6.2161   -0.0000 C   0  0  0  0  0  0  0  0  0  0  0  0
    7.6065    4.7030   -0.0000 C   0  0  0  0  0  0  0  0  0  0  0  0
    6.2774    7.0135   -0.0000 C   0  0  0  0  0  0  0  0  0  0  0  0
    4.9892    7.4838   -0.0000 C   0  0  0  0  0  0  0  0  0  0  0  0
    7.5861    6.2570   -0.0000 C   0  0  0  0  0  0  0  0  0  0  0  0
    6.2570    8.2813   -0.0000 O   0  0  0  0  0  0  0  0  0  0  0  0
  1  2  1  0
  1  3  1  0
  2  4  1  0
  2  5  2  0
  3  6  1  0
  4  7  2  0
  4  8  1  0
  5  9  1  0
  5 10  1  0
  8 11  1  0
  9 12  1  0
  9 13  1  6
 10 14  1  0
 12 15  1  0
 12 16  1  6
 15 17  1  0
 16 18  1  0
 17 19  1  0
 17 20  1  6
 19 21  1  0
 19 22  1  6
 20 23  1  0
 21 24  2  0
  9 11  1  0
 15 14  1  1
 18 19  1  0
 21 23  1  0
M  END
>  <MolRegNo>  (1) 
2057822

>  <m>  (1) 
=

>  <Value>  (1) 
36

>  <Unit>  (1) 
nM

>  <Type>  (1) 
Ki

>  <pValue>  (1) 
7.44

>  <Ligand Efficiency>  (1) 
0.42

>  <Binding Efficiency>  (1) 
21.48

>  <Surface Efficiency>  (1) 
21.8

>  <Assay Index>  (1) 
985527

>  <Assay Category>  (1) 


>  <Assay Organism>  (1) 
Homo sapiens

>  <Target ID>  (1) 
65

>  <Target Name>  (1) 
Cytochrome P450 19A1

>  <Target Organism>  (1) 
Homo sapiens

>  <Target Description>  (1) 
Target is a single protein chain

>  <Sequence Accession>  (1) 
P11511

>  <Reference>  (1) 


>  <Pubmed ID>  (1) 
26469743

>  <DOI>  (1) 
10.1016/j.ejmech.2015.09.038

$$$$
