4wnv_ligand_145
     RDKit          2D

 29 32  0  0  0  0  0  0  0  0999 V2000
    0.0000   -0.0000   -0.0000 O   0  0  0  0  0  0  0  0  0  0  0  0
   -0.0119   -1.4856   -0.0000 C   0  0  0  0  0  0  0  0  0  0  0  0
   -1.3192   -2.2343   -0.0000 N   0  0  0  0  0  0  0  0  0  0  0  0
    1.2835   -2.2224   -0.0000 N   0  0  0  0  0  0  0  0  0  0  0  0
   -2.6383   -1.4737   -0.0000 C   0  0  0  0  0  0  0  0  0  0  0  0
    2.5670   -1.4499   -0.0000 C   0  0  0  0  0  0  0  0  0  0  0  0
   -3.9456   -2.2105   -0.0000 C   0  0  0  0  0  0  0  0  0  0  0  0
   -2.6621    0.0475   -0.0000 C   0  0  0  0  0  0  0  0  0  0  0  0
    3.8505   -2.1867   -0.0000 C   0  0  0  0  0  0  0  0  0  0  0  0
    2.5433    0.0594   -0.0000 C   0  0  0  0  0  0  0  0  0  0  0  0
   -5.2529   -1.4499   -0.0000 C   0  0  0  0  0  0  0  0  0  0  0  0
   -3.9813    0.7963   -0.0000 C   0  0  0  0  0  0  0  0  0  0  0  0
    5.1341   -1.4261   -0.0000 C   0  0  0  0  0  0  0  0  0  0  0  0
    3.8387    0.8200   -0.0000 C   0  0  0  0  0  0  0  0  0  0  0  0
   -5.2648    0.0713   -0.0000 C   0  0  0  0  0  0  0  0  0  0  0  0
   -6.5602   -2.1986   -0.0000 C   0  0  0  0  0  0  0  0  0  0  0  0
    5.1222    0.0832   -0.0000 N   0  0  0  0  0  0  0  0  0  0  0  0
   -6.5721    0.8319   -0.0000 C   0  0  0  0  0  0  0  0  0  0  0  0
   -7.8675   -1.4380   -0.0000 C   0  0  0  0  0  0  0  0  0  0  0  0
    6.3106    0.9983   -0.0000 C   0  0  0  0  0  0  0  0  0  0  0  0
   -7.8794    0.0951   -0.0000 C   0  0  0  0  0  0  0  0  0  0  0  0
    7.6773    0.4160   -0.0000 C   0  0  0  0  0  0  0  0  0  0  0  0
    7.6536   -1.0696   -0.0000 C   0  0  0  0  0  0  0  0  0  0  0  0
    8.7469    1.4737   -0.0000 C   0  0  0  0  0  0  0  0  0  0  0  0
    8.6875   -2.1392   -0.0000 C   0  0  0  0  0  0  0  0  0  0  0  0
   10.2325    1.4618   -0.0000 C   0  0  0  0  0  0  0  0  0  0  0  0
   10.1730   -2.1511   -0.0000 C   0  0  0  0  0  0  0  0  0  0  0  0
   11.2664    0.3922   -0.0000 C   0  0  0  0  0  0  0  0  0  0  0  0
   11.2426   -1.0934   -0.0000 C   0  0  0  0  0  0  0  0  0  0  0  0
  1  2  2  0
  2  3  1  0
  2  4  1  0
  3  5  1  0
  4  6  1  0
  5  7  2  0
  5  8  1  0
  6  9  1  0
  6 10  1  0
  7 11  1  0
  8 12  2  0
  9 13  1  0
 10 14  1  0
 11 15  2  0
 11 16  1  0
 13 17  1  0
 15 18  1  0
 16 19  2  0
 17 20  1  0
 18 21  2  0
 20 22  1  0
 22 23  2  0
 22 24  1  0
 23 25  1  0
 24 26  1  0
 25 27  1  0
 26 28  1  0
 27 29  1  0
 12 15  1  0
 14 17  1  0
 19 21  1  0
 28 29  1  0
M  END
>  <MolRegNo>  (1) 
386060

>  <m>  (1) 
=

>  <Value>  (1) 
600

>  <Unit>  (1) 
nM

>  <Type>  (1) 
Ki

>  <pValue>  (1) 
6.22

>  <Ligand Efficiency>  (1) 
0

>  <Binding Efficiency>  (1) 
0

>  <Surface Efficiency>  (1) 
0

>  <Assay Index>  (1) 
286541

>  <Assay Category>  (1) 


>  <Assay Organism>  (1) 
Homo sapiens

>  <Target ID>  (1) 
11365

>  <Target Name>  (1) 
Cytochrome P450 2D6

>  <Target Organism>  (1) 
Homo sapiens

>  <Target Description>  (1) 
Target is a single protein chain

>  <Sequence Accession>  (1) 
P10635

>  <Reference>  (1) 
Bioorg Med Chem Lett 17 (3), 697-701 (2007)

>  <Pubmed ID>  (1) 
17097877

>  <DOI>  (1) 
10.1016/j.bmcl.2006.10.088

$$$$
