4wnv_ligand_308
     RDKit          2D

 28 32  0  0  0  0  0  0  0  0999 V2000
    0.0000   -0.0000   -0.0000 S   0  0  0  0  0  0  0  0  0  0  0  0
   -0.0202    1.5555   -0.0000 C   0  0  0  0  0  0  0  0  0  0  0  0
   -1.3535   -0.7474   -0.0000 C   0  0  0  0  0  0  0  0  0  0  0  0
   -1.3131    2.3231   -0.0000 C   0  0  0  0  0  0  0  0  0  0  0  0
    1.2323    2.3433   -0.0000 C   0  0  0  0  0  0  0  0  0  0  0  0
   -2.6867    0.0404   -0.0000 C   0  0  0  0  0  0  0  0  0  0  0  0
   -1.3737   -2.2625   -0.0000 C   0  0  0  0  0  0  0  0  0  0  0  0
   -2.4039    1.7373   -0.0000 O   0  0  0  0  0  0  0  0  0  0  0  0
   -1.3333    3.8180   -0.0000 C   0  0  0  0  0  0  0  0  0  0  0  0
    2.5049    1.6161   -0.0000 C   0  0  0  0  0  0  0  0  0  0  0  0
    1.2121    3.8382   -0.0000 C   0  0  0  0  0  0  0  0  0  0  0  0
   -4.0402   -0.6868   -0.0000 C   0  0  0  0  0  0  0  0  0  0  0  0
   -2.7271   -2.9898   -0.0000 C   0  0  0  0  0  0  0  0  0  0  0  0
   -0.1010    4.5654   -0.0000 C   0  0  0  0  0  0  0  0  0  0  0  0
    3.7574    2.4039   -0.0000 C   0  0  0  0  0  0  0  0  0  0  0  0
    2.4645    4.5856   -0.0000 C   0  0  0  0  0  0  0  0  0  0  0  0
    1.1717    5.0907   -0.0000 C   0  0  0  0  0  0  0  0  0  0  0  0
   -4.0604   -2.2019   -0.0000 C   0  0  0  0  0  0  0  0  0  0  0  0
    3.7170    3.8988   -0.0000 C   0  0  0  0  0  0  0  0  0  0  0  0
    2.4241    6.1007   -0.0000 C   0  0  0  0  0  0  0  0  0  0  0  0
    4.9695    4.6462   -0.0000 C   0  0  0  0  0  0  0  0  0  0  0  0
    3.6766    6.8683   -0.0000 C   0  0  0  0  0  0  0  0  0  0  0  0
    4.9493    6.1411   -0.0000 C   0  0  0  0  0  0  0  0  0  0  0  0
    7.5148    4.6462   -0.0000 C   0  0  0  0  0  0  0  0  0  0  0  0
    6.2017    6.9290   -0.0000 C   0  0  0  0  0  0  0  0  0  0  0  0
    4.9290    7.3936   -0.0000 C   0  0  0  0  0  0  0  0  0  0  0  0
    7.4946    6.1815   -0.0000 C   0  0  0  0  0  0  0  0  0  0  0  0
    6.1815    8.1814   -0.0000 O   0  0  0  0  0  0  0  0  0  0  0  0
  1  2  1  0
  1  3  1  0
  2  4  1  0
  2  5  2  0
  3  6  2  0
  3  7  1  0
  4  8  2  0
  4  9  1  0
  5 10  1  0
  5 11  1  0
  6 12  1  0
  7 13  2  0
  9 14  2  0
 10 15  2  0
 11 16  1  0
 11 17  1  1
 12 18  2  0
 19 15  1  6
 16 20  1  1
 19 21  1  0
 20 22  1  0
 21 23  1  0
 21 24  1  1
 23 25  1  0
 23 26  1  1
 24 27  1  0
 25 28  2  0
 11 14  1  0
 13 18  1  0
 16 19  1  0
 22 23  1  0
 25 27  1  0
M  END
>  <MolRegNo>  (1) 
2057827

>  <m>  (1) 
=

>  <Value>  (1) 
9.8

>  <Unit>  (1) 
nM

>  <Type>  (1) 
Ki

>  <pValue>  (1) 
8.01

>  <Ligand Efficiency>  (1) 
0.39

>  <Binding Efficiency>  (1) 
20.51

>  <Surface Efficiency>  (1) 
23.46

>  <Assay Index>  (1) 
985530

>  <Assay Category>  (1) 


>  <Assay Organism>  (1) 
Homo sapiens

>  <Target ID>  (1) 
65

>  <Target Name>  (1) 
Cytochrome P450 19A1

>  <Target Organism>  (1) 
Homo sapiens

>  <Target Description>  (1) 
Target is a single protein chain

>  <Sequence Accession>  (1) 
P11511

>  <Reference>  (1) 


>  <Pubmed ID>  (1) 
26469743

>  <DOI>  (1) 
10.1016/j.ejmech.2015.09.038

$$$$
