4wnv_ligand_244
     RDKit          2D

 27 30  0  0  0  0  0  0  0  0999 V2000
    0.0000   -0.0000   -0.0000 O   0  0  0  0  0  0  0  0  0  0  0  0
    1.0665    0.6358   -0.0000 C   0  0  0  0  0  0  0  0  0  0  0  0
    2.3381   -0.1025   -0.0000 C   0  0  0  0  0  0  0  0  0  0  0  0
    1.0460    2.1535   -0.0000 C   0  0  0  0  0  0  0  0  0  0  0  0
    3.6097    0.6973   -0.0000 C   0  0  0  0  0  0  0  0  0  0  0  0
    2.2971    2.9124   -0.0000 C   0  0  0  0  0  0  0  0  0  0  0  0
    4.9019   -0.0410   -0.0000 C   0  0  0  0  0  0  0  0  0  0  0  0
    3.5892    2.2151   -0.0000 C   0  0  0  0  0  0  0  0  0  0  0  0
    6.1735    0.7589   -0.0000 C   0  0  0  0  0  0  0  0  0  0  0  0
    4.9019   -1.5793   -0.0000 C   0  0  0  0  0  0  0  0  0  0  0  0
    4.8609    2.9739   -0.0000 C   0  0  0  0  0  0  0  0  0  0  0  0
    3.5482    3.4867   -0.0000 C   0  0  0  0  0  0  0  0  0  0  0  0
    6.1325    2.2766   -0.0000 C   0  0  0  0  0  0  0  0  0  0  0  0
    6.2350   -2.3176   -0.0000 C   0  0  0  0  0  0  0  0  0  0  0  0
    4.8198    4.5122   -0.0000 C   0  0  0  0  0  0  0  0  0  0  0  0
    7.4041    3.0355   -0.0000 C   0  0  0  0  0  0  0  0  0  0  0  0
    6.2350   -3.8559   -0.0000 C   0  0  0  0  0  0  0  0  0  0  0  0
    6.0915    5.2916   -0.0000 C   0  0  0  0  0  0  0  0  0  0  0  0
    7.3836    4.5532   -0.0000 C   0  0  0  0  0  0  0  0  0  0  0  0
    9.9883    3.0355   -0.0000 C   0  0  0  0  0  0  0  0  0  0  0  0
    7.5682   -4.5942   -0.0000 C   0  0  0  0  0  0  0  0  0  0  0  0
    8.6552    5.3531   -0.0000 C   0  0  0  0  0  0  0  0  0  0  0  0
    7.3631    5.8248   -0.0000 C   0  0  0  0  0  0  0  0  0  0  0  0
    9.9678    4.5942   -0.0000 C   0  0  0  0  0  0  0  0  0  0  0  0
    7.5682   -6.1325   -0.0000 C   0  0  0  0  0  0  0  0  0  0  0  0
    8.6347    6.6247   -0.0000 O   0  0  0  0  0  0  0  0  0  0  0  0
    8.6347   -6.7273   -0.0000 C   0  0  0  0  0  0  0  0  0  0  0  0
  1  2  2  0
  2  3  1  0
  2  4  1  0
  3  5  2  0
  4  6  2  0
  5  7  1  0
  5  8  1  0
  7  9  2  0
  7 10  1  0
  8 11  1  0
  8 12  1  1
 13  9  1  6
 10 14  1  0
 11 15  1  1
 13 16  1  0
 14 17  1  0
 15 18  1  0
 16 19  1  0
 16 20  1  1
 17 21  1  0
 19 22  1  0
 19 23  1  1
 20 24  1  0
 21 25  1  0
 22 26  2  0
 25 27  1  0
  6  8  1  0
 11 13  1  0
 18 19  1  0
 22 24  1  0
M  END
>  <MolRegNo>  (1) 
2057940

>  <m>  (1) 
=

>  <Value>  (1) 
2.5

>  <Unit>  (1) 
nM

>  <Type>  (1) 
Ki

>  <pValue>  (1) 
8.6

>  <Ligand Efficiency>  (1) 
0.44

>  <Binding Efficiency>  (1) 
23.47

>  <Surface Efficiency>  (1) 
25.2

>  <Assay Index>  (1) 
985353

>  <Assay Category>  (1) 


>  <Assay Organism>  (1) 
Homo sapiens

>  <Target ID>  (1) 
65

>  <Target Name>  (1) 
Cytochrome P450 19A1

>  <Target Organism>  (1) 
Homo sapiens

>  <Target Description>  (1) 
Target is a single protein chain

>  <Sequence Accession>  (1) 
P11511

>  <Reference>  (1) 


>  <Pubmed ID>  (1) 
26469743

>  <DOI>  (1) 
10.1016/j.ejmech.2015.09.038

$$$$
