4wnv_ligand_313
     RDKit          2D

 22 25  0  0  0  0  0  0  0  0999 V2000
    0.0000   -0.0000   -0.0000 O   0  0  0  0  0  0  0  0  0  0  0  0
    1.0709    0.6384   -0.0000 C   0  0  0  0  0  0  0  0  0  0  0  0
    2.3477   -0.1030   -0.0000 C   0  0  0  0  0  0  0  0  0  0  0  0
    1.0503    2.1624   -0.0000 C   0  0  0  0  0  0  0  0  0  0  0  0
    3.6246    0.7002   -0.0000 C   0  0  0  0  0  0  0  0  0  0  0  0
    2.3065    2.9244   -0.0000 C   0  0  0  0  0  0  0  0  0  0  0  0
    3.6040    2.2242   -0.0000 C   0  0  0  0  0  0  0  0  0  0  0  0
    4.9220   -0.0412   -0.0000 C   0  0  0  0  0  0  0  0  0  0  0  0
    4.8808    2.9861   -0.0000 C   0  0  0  0  0  0  0  0  0  0  0  0
    3.5628    3.5010   -0.0000 C   0  0  0  0  0  0  0  0  0  0  0  0
    6.1988    0.7620   -0.0000 C   0  0  0  0  0  0  0  0  0  0  0  0
    4.9220   -1.2768   -0.0000 C   0  0  0  0  0  0  0  0  0  0  0  0
    6.1576    2.2859   -0.0000 C   0  0  0  0  0  0  0  0  0  0  0  0
    4.8396    4.5307   -0.0000 C   0  0  0  0  0  0  0  0  0  0  0  0
    7.4345    3.0479   -0.0000 C   0  0  0  0  0  0  0  0  0  0  0  0
    6.1164    5.3133   -0.0000 C   0  0  0  0  0  0  0  0  0  0  0  0
    7.4139    4.5719   -0.0000 C   0  0  0  0  0  0  0  0  0  0  0  0
   10.0293    3.0479   -0.0000 C   0  0  0  0  0  0  0  0  0  0  0  0
    8.6907    5.3751   -0.0000 C   0  0  0  0  0  0  0  0  0  0  0  0
    7.3933    5.8487   -0.0000 C   0  0  0  0  0  0  0  0  0  0  0  0
   10.0087    4.6131   -0.0000 C   0  0  0  0  0  0  0  0  0  0  0  0
    8.6701    6.6519   -0.0000 O   0  0  0  0  0  0  0  0  0  0  0  0
  1  2  2  0
  2  3  1  0
  2  4  1  0
  3  5  2  0
  4  6  1  0
  5  7  1  0
  5  8  1  0
  7  9  1  0
  7 10  1  6
  8 11  1  0
  8 12  1  1
  9 13  1  0
  9 14  1  6
 13 15  1  0
 14 16  1  0
 15 17  1  0
 15 18  1  6
 17 19  1  0
 17 20  1  6
 18 21  1  0
 19 22  2  0
  6  7  1  0
 13 11  1  1
 16 17  1  0
 19 21  1  0
M  END
>  <MolRegNo>  (1) 
2057959

>  <m>  (1) 
=

>  <Value>  (1) 
1.4

>  <Unit>  (1) 
nM

>  <Type>  (1) 
Ki

>  <pValue>  (1) 
8.85

>  <Ligand Efficiency>  (1) 
0.55

>  <Binding Efficiency>  (1) 
29.47

>  <Surface Efficiency>  (1) 
25.93

>  <Assay Index>  (1) 
985528

>  <Assay Category>  (1) 


>  <Assay Organism>  (1) 
Homo sapiens

>  <Target ID>  (1) 
65

>  <Target Name>  (1) 
Cytochrome P450 19A1

>  <Target Organism>  (1) 
Homo sapiens

>  <Target Description>  (1) 
Target is a single protein chain

>  <Sequence Accession>  (1) 
P11511

>  <Reference>  (1) 


>  <Pubmed ID>  (1) 
26469743

>  <DOI>  (1) 
10.1016/j.ejmech.2015.09.038

$$$$
