4wnv_ligand_80
     RDKit          2D

 24 28  0  0  1  0  0  0  0  0999 V2000
    0.0000   -0.0000   -0.0000 O   0  0  0  0  0  0  0  0  0  0  0  0
    1.2992    0.7509   -0.0000 C   0  0  0  0  0  0  0  0  0  0  0  0
    2.5745    0.0238   -0.0000 C   0  0  0  0  0  0  0  0  0  0  0  0
    1.2873    2.2527   -0.0000 C   0  0  0  0  0  0  0  0  0  0  0  0
    3.8499    0.7747   -0.0000 C   0  0  0  0  0  0  0  0  0  0  0  0
    2.5626    3.0275   -0.0000 C   0  0  0  0  0  0  0  0  0  0  0  0
    3.8499    2.2766   -0.0000 C   0  0  0  0  0  0  0  0  0  0  0  0
    5.1252    0.0358   -0.0000 C   0  0  0  0  0  0  0  0  0  0  0  0
    5.1372    3.0394   -0.0000 C   0  0  0  0  0  0  0  0  0  0  0  0
    3.8141    3.7784   -0.0000 C   0  0  0  0  0  0  0  0  0  0  0  0
    6.4244    0.7867   -0.0000 C   0  0  0  0  0  0  0  0  0  0  0  0
    6.4244    2.2885   -0.0000 C   0  0  0  0  0  0  0  0  0  0  0  0
    5.1014    4.5650   -0.0000 C   0  0  0  0  0  0  0  0  0  0  0  0
    2.5030    4.5293   -0.0000 C   0  0  0  0  0  0  0  0  0  0  0  0
    7.7117    3.0394   -0.0000 C   0  0  0  0  0  0  0  0  0  0  0  0
    6.4363    5.3040   -0.0000 C   0  0  0  0  0  0  0  0  0  0  0  0
    1.7283    5.8404   -0.0000 O   0  0  0  0  0  0  0  0  0  0  0  0
    0.9893    4.5412   -0.0000 C   0  0  0  0  0  0  0  0  0  0  0  0
    7.7355    4.5412   -0.0000 C   0  0  0  0  0  0  0  0  0  0  0  0
    9.1181    2.5626   -0.0000 C   0  0  0  0  0  0  0  0  0  0  0  0
    9.1539    5.0060   -0.0000 C   0  0  0  0  0  0  0  0  0  0  0  0
    7.7117    6.0668   -0.0000 C   0  0  0  0  0  0  0  0  0  0  0  0
   10.0121    3.7665   -0.0000 C   0  0  0  0  0  0  0  0  0  0  0  0
    9.6307    6.4244   -0.0000 O   0  0  0  0  0  0  0  0  0  0  0  0
  1  2  2  0
  2  3  1  0
  2  4  1  0
  3  5  2  0
  4  6  1  0
  5  7  1  0
  5  8  1  0
  7  9  1  0
  7 10  1  1
  8 11  1  0
  9 12  1  0
  9 13  1  1
 14 10  1  6
 12 15  1  0
 13 16  1  0
 14 17  1  0
 14 18  1  0
 15 19  1  0
 15 20  1  1
 19 21  1  0
 19 22  1  1
 20 23  1  0
 21 24  2  0
  6  7  1  0
 12 11  1  6
 16 19  1  0
 17 18  1  0
 21 23  1  0
M  END
>  <MolRegNo>  (1) 
1385519

>  <m>  (1) 
=

>  <Value>  (1) 
753

>  <Unit>  (1) 
nM

>  <Type>  (1) 
Ki

>  <pValue>  (1) 
6.12

>  <Ligand Efficiency>  (1) 
0.35

>  <Binding Efficiency>  (1) 
18.64

>  <Surface Efficiency>  (1) 
13.12

>  <Assay Index>  (1) 
50937

>  <Assay Category>  (1) 


>  <Assay Organism>  (1) 
Homo sapiens

>  <Target ID>  (1) 
65

>  <Target Name>  (1) 
Cytochrome P450 19A1

>  <Target Organism>  (1) 
Homo sapiens

>  <Target Description>  (1) 
Target is a single protein chain

>  <Sequence Accession>  (1) 
P11511

>  <Reference>  (1) 
J Med Chem 34 (4), 1344-1349 (1991)

>  <Pubmed ID>  (1) 
2016709

>  <DOI>  (1) 
10.1021/jm00108a016

$$$$
