4wnv_ligand_130
     RDKit          2D

 22 25  0  0  1  0  0  0  0  0999 V2000
    0.0000   -0.0000   -0.0000 O   0  0  0  0  0  0  0  0  0  0  0  0
    1.2893   -0.7334   -0.0000 C   0  0  0  0  0  0  0  0  0  0  0  0
    1.2775   -2.2237   -0.0000 C   0  0  0  0  0  0  0  0  0  0  0  0
    2.5786    0.0237   -0.0000 C   0  0  0  0  0  0  0  0  0  0  0  0
   -0.0355   -2.9689   -0.0000 C   0  0  0  0  0  0  0  0  0  0  0  0
    2.5667   -2.9689   -0.0000 C   0  0  0  0  0  0  0  0  0  0  0  0
    3.8679   -0.7097   -0.0000 N   0  0  0  0  0  0  0  0  0  0  0  0
    2.5667    1.5377   -0.0000 C   0  0  0  0  0  0  0  0  0  0  0  0
   -0.0473   -4.4593   -0.0000 C   0  0  0  0  0  0  0  0  0  0  0  0
   -1.3484   -2.2001   -0.0000 C   0  0  0  0  0  0  0  0  0  0  0  0
    2.5549   -4.4593   -0.0000 C   0  0  0  0  0  0  0  0  0  0  0  0
    4.5539    0.6151   -0.0000 C   0  0  0  0  0  0  0  0  0  0  0  0
    5.1571    0.0473   -0.0000 C   0  0  0  0  0  0  0  0  0  0  0  0
    3.8560    2.2947   -0.0000 C   0  0  0  0  0  0  0  0  0  0  0  0
    1.2420   -5.1926   -0.0000 N   0  0  0  0  0  0  0  0  0  0  0  0
   -1.3603   -5.1926   -0.0000 C   0  0  0  0  0  0  0  0  0  0  0  0
   -2.6614   -2.9452   -0.0000 C   0  0  0  0  0  0  0  0  0  0  0  0
    3.0872    1.0172   -0.0000 C   0  0  0  0  0  0  0  0  0  0  0  0
    5.1453    1.5613   -0.0000 C   0  0  0  0  0  0  0  0  0  0  0  0
   -2.6732   -4.4356   -0.0000 C   0  0  0  0  0  0  0  0  0  0  0  0
    3.0754    2.5313   -0.0000 C   0  0  0  0  0  0  0  0  0  0  0  0
    1.6086    2.9334   -0.0000 C   0  0  0  0  0  0  0  0  0  0  0  0
  2  1  1  6
  2  3  1  0
  2  4  1  0
  3  5  1  0
  3  6  2  0
  4  7  1  0
  4  8  1  1
  5  9  2  0
  5 10  1  0
  6 11  1  0
  7 12  1  0
  7 13  1  0
 14  8  1  6
  9 15  1  0
  9 16  1  0
 10 17  2  0
 12 18  1  0
 13 19  1  0
 16 20  2  0
 18 21  1  6
 21 22  2  0
 11 15  2  0
 14 18  1  0
 14 19  1  0
 17 20  1  0
M  END
>  <MolRegNo>  (1) 
530450

>  <m>  (1) 
=

>  <Value>  (1) 
21000

>  <Unit>  (1) 
nM

>  <Type>  (1) 
Ki

>  <pValue>  (1) 
4.68

>  <Ligand Efficiency>  (1) 
0

>  <Binding Efficiency>  (1) 
0

>  <Surface Efficiency>  (1) 
0

>  <Assay Index>  (1) 
235178

>  <Assay Category>  (1) 


>  <Assay Organism>  (1) 


>  <Target ID>  (1) 
11365

>  <Target Name>  (1) 
Cytochrome P450 2D6

>  <Target Organism>  (1) 
Homo sapiens

>  <Target Description>  (1) 
Target is a single protein chain

>  <Sequence Accession>  (1) 
P10635

>  <Reference>  (1) 
J Med Chem 47 (22), 5340-5346 (2004)

>  <Pubmed ID>  (1) 
15481972

>  <DOI>  (1) 
10.1021/jm049934e

$$$$
