4wnv_ligand_301
     RDKit          2D

 21 24  0  0  0  0  0  0  0  0999 V2000
    0.0000   -0.0000   -0.0000 Br  0  0  0  0  0  0  0  0  0  0  0  0
   -1.0768   -0.5892   -0.0000 C   0  0  0  0  0  0  0  0  0  0  0  0
   -2.3975    0.1829   -0.0000 C   0  0  0  0  0  0  0  0  0  0  0  0
   -1.0972   -2.0927   -0.0000 C   0  0  0  0  0  0  0  0  0  0  0  0
   -2.4178    1.4426   -0.0000 O   0  0  0  0  0  0  0  0  0  0  0  0
   -3.6978   -0.5689   -0.0000 C   0  0  0  0  0  0  0  0  0  0  0  0
   -3.6978   -2.0521   -0.0000 C   0  0  0  0  0  0  0  0  0  0  0  0
   -4.9982    0.2032   -0.0000 C   0  0  0  0  0  0  0  0  0  0  0  0
   -3.7182    0.6908   -0.0000 C   0  0  0  0  0  0  0  0  0  0  0  0
   -4.9982   -2.7632   -0.0000 C   0  0  0  0  0  0  0  0  0  0  0  0
   -6.2985   -0.5283   -0.0000 C   0  0  0  0  0  0  0  0  0  0  0  0
   -6.2985   -2.0318   -0.0000 C   0  0  0  0  0  0  0  0  0  0  0  0
   -4.9982   -4.2261   -0.0000 C   0  0  0  0  0  0  0  0  0  0  0  0
   -7.5988   -2.7429   -0.0000 C   0  0  0  0  0  0  0  0  0  0  0  0
   -6.2985   -4.9779   -0.0000 C   0  0  0  0  0  0  0  0  0  0  0  0
   -7.6192   -4.2058   -0.0000 C   0  0  0  0  0  0  0  0  0  0  0  0
   -8.9195   -2.0115   -0.0000 C   0  0  0  0  0  0  0  0  0  0  0  0
   -7.6395   -1.4832   -0.0000 C   0  0  0  0  0  0  0  0  0  0  0  0
   -8.9195   -4.9575   -0.0000 C   0  0  0  0  0  0  0  0  0  0  0  0
  -10.1995   -2.7226   -0.0000 C   0  0  0  0  0  0  0  0  0  0  0  0
  -10.2198   -4.1855   -0.0000 C   0  0  0  0  0  0  0  0  0  0  0  0
  2  1  1  1
  2  3  1  0
  2  4  1  0
  3  5  2  0
  3  6  1  0
  7  4  1  6
  6  8  1  0
  6  9  1  6
  7 10  1  0
  8 11  1  0
 10 12  1  0
 10 13  1  1
 12 14  1  0
 13 15  1  0
 14 16  1  0
 14 17  1  0
 14 18  1  6
 16 19  2  0
 17 20  1  0
 19 21  1  0
  6  7  1  0
 12 11  1  6
 15 16  1  0
 20 21  1  0
M  END
>  <MolRegNo>  (1) 
2058107

>  <m>  (1) 
=

>  <Value>  (1) 
228

>  <Unit>  (1) 
nM

>  <Type>  (1) 
Ki

>  <pValue>  (1) 
6.64

>  <Ligand Efficiency>  (1) 
0.43

>  <Binding Efficiency>  (1) 
18.91

>  <Surface Efficiency>  (1) 
38.91

>  <Assay Index>  (1) 
985527

>  <Assay Category>  (1) 


>  <Assay Organism>  (1) 
Homo sapiens

>  <Target ID>  (1) 
65

>  <Target Name>  (1) 
Cytochrome P450 19A1

>  <Target Organism>  (1) 
Homo sapiens

>  <Target Description>  (1) 
Target is a single protein chain

>  <Sequence Accession>  (1) 
P11511

>  <Reference>  (1) 


>  <Pubmed ID>  (1) 
26469743

>  <DOI>  (1) 
10.1016/j.ejmech.2015.09.038

$$$$
