4wnv_ligand_27
     RDKit          2D

 39 42  0  0  0  0  0  0  0  0999 V2000
    0.0000   -0.0000   -0.0000 Cl  0  0  0  0  0  0  0  0  0  0  0  0
   -0.0237    1.5068   -0.0000 C   0  0  0  0  0  0  0  0  0  0  0  0
    1.2576    2.2661   -0.0000 C   0  0  0  0  0  0  0  0  0  0  0  0
   -1.3407    2.2661   -0.0000 C   0  0  0  0  0  0  0  0  0  0  0  0
    1.2458    3.7729   -0.0000 C   0  0  0  0  0  0  0  0  0  0  0  0
   -1.3525    3.7729   -0.0000 C   0  0  0  0  0  0  0  0  0  0  0  0
   -0.0593    4.5322   -0.0000 C   0  0  0  0  0  0  0  0  0  0  0  0
   -0.0712    6.0509   -0.0000 O   0  0  0  0  0  0  0  0  0  0  0  0
   -1.3763    6.7983   -0.0000 C   0  0  0  0  0  0  0  0  0  0  0  0
   -1.3881    8.3170   -0.0000 C   0  0  0  0  0  0  0  0  0  0  0  0
   -0.1068    9.0763   -0.0000 O   0  0  0  0  0  0  0  0  0  0  0  0
   -2.6932    9.0763   -0.0000 C   0  0  0  0  0  0  0  0  0  0  0  0
   -2.7051   10.5831   -0.0000 N   0  0  0  0  0  0  0  0  0  0  0  0
   -4.0102   11.3424   -0.0000 C   0  0  0  0  0  0  0  0  0  0  0  0
   -1.4237   11.3424   -0.0000 C   0  0  0  0  0  0  0  0  0  0  0  0
   -4.0220   12.8492   -0.0000 C   0  0  0  0  0  0  0  0  0  0  0  0
   -1.4356   12.8492   -0.0000 C   0  0  0  0  0  0  0  0  0  0  0  0
   -2.7407   13.6085   -0.0000 N   0  0  0  0  0  0  0  0  0  0  0  0
   -2.7525   15.1153   -0.0000 C   0  0  0  0  0  0  0  0  0  0  0  0
   -4.2119   15.5305   -0.0000 C   0  0  0  0  0  0  0  0  0  0  0  0
   -1.4712   15.8746   -0.0000 C   0  0  0  0  0  0  0  0  0  0  0  0
   -4.6034   17.0017   -0.0000 C   0  0  0  0  0  0  0  0  0  0  0  0
   -5.2915   14.4746   -0.0000 C   0  0  0  0  0  0  0  0  0  0  0  0
   -1.4831   17.3932   -0.0000 N   0  0  0  0  0  0  0  0  0  0  0  0
   -6.0746   17.4170   -0.0000 C   0  0  0  0  0  0  0  0  0  0  0  0
   -6.7509   14.8661   -0.0000 C   0  0  0  0  0  0  0  0  0  0  0  0
   -2.8000   18.1526   -0.0000 C   0  0  0  0  0  0  0  0  0  0  0  0
   -7.1542   16.3610   -0.0000 C   0  0  0  0  0  0  0  0  0  0  0  0
   -3.8322   17.5949   -0.0000 O   0  0  0  0  0  0  0  0  0  0  0  0
   -2.8119   19.6593   -0.0000 C   0  0  0  0  0  0  0  0  0  0  0  0
   -1.5186   20.4187   -0.0000 C   0  0  0  0  0  0  0  0  0  0  0  0
   -4.1170   20.4187   -0.0000 C   0  0  0  0  0  0  0  0  0  0  0  0
   -1.5305   21.9255   -0.0000 C   0  0  0  0  0  0  0  0  0  0  0  0
   -4.1288   21.9255   -0.0000 C   0  0  0  0  0  0  0  0  0  0  0  0
   -2.8475   22.6848   -0.0000 C   0  0  0  0  0  0  0  0  0  0  0  0
   -2.8712   24.2034   -0.0000 C   0  0  0  0  0  0  0  0  0  0  0  0
   -1.3881   24.2153   -0.0000 F   0  0  0  0  0  0  0  0  0  0  0  0
   -4.3898   24.1797   -0.0000 F   0  0  0  0  0  0  0  0  0  0  0  0
   -2.9068   25.6865   -0.0000 F   0  0  0  0  0  0  0  0  0  0  0  0
  1  2  1  0
  2  3  2  0
  2  4  1  0
  3  5  1  0
  4  6  2  0
  5  7  2  0
  7  8  1  0
  8  9  1  0
  9 10  1  0
 10 11  1  0
 10 12  1  0
 12 13  1  0
 13 14  1  0
 13 15  1  0
 14 16  1  0
 15 17  1  0
 16 18  1  0
 18 19  1  0
 19 20  1  0
 19 21  1  0
 20 22  2  0
 20 23  1  0
 21 24  1  0
 22 25  1  0
 23 26  2  0
 24 27  1  0
 25 28  2  0
 27 29  2  0
 27 30  1  0
 30 31  2  0
 30 32  1  0
 31 33  1  0
 32 34  2  0
 33 35  2  0
 35 36  1  0
 36 37  1  0
 36 38  1  0
 36 39  1  0
  6  7  1  0
 17 18  1  0
 26 28  1  0
 34 35  1  0
M  END
>  <MolRegNo>  (1) 
97455

>  <m>  (1) 
=

>  <Value>  (1) 
1000

>  <Unit>  (1) 
nM

>  <Type>  (1) 
Ki

>  <pValue>  (1) 
6

>  <Ligand Efficiency>  (1) 
0

>  <Binding Efficiency>  (1) 
0

>  <Surface Efficiency>  (1) 
0

>  <Assay Index>  (1) 
51650

>  <Assay Category>  (1) 


>  <Assay Organism>  (1) 


>  <Target ID>  (1) 
11365

>  <Target Name>  (1) 
Cytochrome P450 2D6

>  <Target Organism>  (1) 
Homo sapiens

>  <Target Description>  (1) 
Target is a single protein chain

>  <Sequence Accession>  (1) 
P10635

>  <Reference>  (1) 
Bioorg Med Chem Lett 14 (9), 2025-2030 (2004)

>  <Pubmed ID>  (1) 
15080972

>  <DOI>  (1) 
10.1016/j.bmcl.2004.02.078

$$$$
