4wnv_ligand_195
     RDKit          2D

 24 26  0  0  0  0  0  0  0  0999 V2000
    0.0000   -0.0000   -0.0000 Br  0  0  0  0  0  0  0  0  0  0  0  0
   -1.0116    1.1174   -0.0000 C   0  0  0  0  0  0  0  0  0  0  0  0
   -0.5646    2.5525   -0.0000 C   0  0  0  0  0  0  0  0  0  0  0  0
   -2.4819    0.8234   -0.0000 C   0  0  0  0  0  0  0  0  0  0  0  0
   -1.5762    3.6699   -0.0000 C   0  0  0  0  0  0  0  0  0  0  0  0
   -3.4935    1.9408   -0.0000 C   0  0  0  0  0  0  0  0  0  0  0  0
   -3.0465    3.3758   -0.0000 C   0  0  0  0  0  0  0  0  0  0  0  0
   -4.0581    4.4933   -0.0000 C   0  0  0  0  0  0  0  0  0  0  0  0
   -5.5519    4.3521   -0.0000 N   0  0  0  0  0  0  0  0  0  0  0  0
   -3.7640    5.9636   -0.0000 C   0  0  0  0  0  0  0  0  0  0  0  0
   -6.1753    5.7283   -0.0000 N   0  0  0  0  0  0  0  0  0  0  0  0
   -6.3047    3.0700   -0.0000 C   0  0  0  0  0  0  0  0  0  0  0  0
   -5.0696    6.7164   -0.0000 N   0  0  0  0  0  0  0  0  0  0  0  0
   -2.4113    6.5870   -0.0000 C   0  0  0  0  0  0  0  0  0  0  0  0
   -7.8103    3.0818   -0.0000 C   0  0  0  0  0  0  0  0  0  0  0  0
   -1.2586    5.6578   -0.0000 O   0  0  0  0  0  0  0  0  0  0  0  0
   -2.1878    8.0691   -0.0000 O   0  0  0  0  0  0  0  0  0  0  0  0
   -8.5749    1.7997   -0.0000 C   0  0  0  0  0  0  0  0  0  0  0  0
   -8.5749    4.3874   -0.0000 C   0  0  0  0  0  0  0  0  0  0  0  0
   -0.7999    8.6219   -0.0000 C   0  0  0  0  0  0  0  0  0  0  0  0
  -10.0805    1.8114   -0.0000 C   0  0  0  0  0  0  0  0  0  0  0  0
  -10.0805    4.3992   -0.0000 C   0  0  0  0  0  0  0  0  0  0  0  0
   -0.5764   10.1040   -0.0000 C   0  0  0  0  0  0  0  0  0  0  0  0
  -10.8333    3.1171   -0.0000 C   0  0  0  0  0  0  0  0  0  0  0  0
  1  2  1  0
  2  3  2  0
  2  4  1  0
  3  5  1  0
  4  6  2  0
  5  7  2  0
  7  8  1  0
  8  9  1  0
  8 10  2  0
  9 11  1  0
  9 12  1  0
 10 13  1  0
 10 14  1  0
 12 15  1  0
 14 16  2  0
 14 17  1  0
 15 18  2  0
 15 19  1  0
 17 20  1  0
 18 21  1  0
 19 22  2  0
 20 23  1  0
 21 24  2  0
  6  7  1  0
 11 13  2  0
 22 24  1  0
M  END
>  <MolRegNo>  (1) 
1787334

>  <m>  (1) 
=

>  <Value>  (1) 
640

>  <Unit>  (1) 
nM

>  <Type>  (1) 
Ki

>  <pValue>  (1) 
6.19

>  <Ligand Efficiency>  (1) 
0.35

>  <Binding Efficiency>  (1) 
16.04

>  <Surface Efficiency>  (1) 
10.86

>  <Assay Index>  (1) 
897974

>  <Assay Category>  (1) 


>  <Assay Organism>  (1) 
Homo sapiens

>  <Target ID>  (1) 
65

>  <Target Name>  (1) 
Cytochrome P450 19A1

>  <Target Organism>  (1) 
Homo sapiens

>  <Target Description>  (1) 
Target is a single protein chain

>  <Sequence Accession>  (1) 
P11511

>  <Reference>  (1) 
Bioorg Med Chem Lett 24 (18), 4586-4589 (2014)

>  <Pubmed ID>  (1) 
25155384

>  <DOI>  (1) 
10.1016/j.bmcl.2014.07.083

$$$$
