4wnv_ligand_185
     RDKit          2D

 25 27  0  0  0  0  0  0  0  0999 V2000
    0.0000   -0.0000   -0.0000 F   0  0  0  0  0  0  0  0  0  0  0  0
   -1.3077   -0.7489   -0.0000 C   0  0  0  0  0  0  0  0  0  0  0  0
   -1.3196   -2.2350   -0.0000 C   0  0  0  0  0  0  0  0  0  0  0  0
   -2.6273    0.0119   -0.0000 C   0  0  0  0  0  0  0  0  0  0  0  0
   -2.6273   -2.9720   -0.0000 C   0  0  0  0  0  0  0  0  0  0  0  0
   -3.9231   -0.7371   -0.0000 C   0  0  0  0  0  0  0  0  0  0  0  0
   -3.9350   -2.2112   -0.0000 C   0  0  0  0  0  0  0  0  0  0  0  0
   -5.2426   -2.9482   -0.0000 C   0  0  0  0  0  0  0  0  0  0  0  0
   -6.5503   -2.1874   -0.0000 O   0  0  0  0  0  0  0  0  0  0  0  0
   -5.2545   -4.4342   -0.0000 C   0  0  0  0  0  0  0  0  0  0  0  0
   -6.5622   -0.6776   -0.0000 C   0  0  0  0  0  0  0  0  0  0  0  0
   -6.5622   -5.1713   -0.0000 C   0  0  0  0  0  0  0  0  0  0  0  0
   -3.9706   -5.1713   -0.0000 C   0  0  0  0  0  0  0  0  0  0  0  0
   -5.2783    0.0832   -0.0000 O   0  0  0  0  0  0  0  0  0  0  0  0
   -7.8699    0.0832   -0.0000 C   0  0  0  0  0  0  0  0  0  0  0  0
   -7.8818   -4.4105   -0.0000 C   0  0  0  0  0  0  0  0  0  0  0  0
   -6.5741   -6.6692   -0.0000 C   0  0  0  0  0  0  0  0  0  0  0  0
   -3.9825   -6.6573   -0.0000 N   0  0  0  0  0  0  0  0  0  0  0  0
   -9.2014   -5.1475   -0.0000 C   0  0  0  0  0  0  0  0  0  0  0  0
   -7.8937   -7.4063   -0.0000 C   0  0  0  0  0  0  0  0  0  0  0  0
   -2.7699   -7.5133   -0.0000 N   0  0  0  0  0  0  0  0  0  0  0  0
   -5.1951   -7.5251   -0.0000 C   0  0  0  0  0  0  0  0  0  0  0  0
   -9.2133   -6.6454   -0.0000 C   0  0  0  0  0  0  0  0  0  0  0  0
   -3.2454   -8.9279   -0.0000 N   0  0  0  0  0  0  0  0  0  0  0  0
   -4.7433   -8.9398   -0.0000 C   0  0  0  0  0  0  0  0  0  0  0  0
  1  2  1  0
  2  3  2  0
  2  4  1  0
  3  5  1  0
  4  6  2  0
  5  7  2  0
  7  8  1  0
  8  9  1  6
  8 10  1  0
  9 11  1  0
 10 12  1  0
 10 13  1  6
 11 14  2  0
 11 15  1  0
 12 16  2  0
 12 17  1  0
 13 18  1  0
 16 19  1  0
 17 20  2  0
 18 21  1  0
 18 22  1  0
 19 23  2  0
 21 24  2  0
 22 25  2  0
  6  7  1  0
 20 23  1  0
 24 25  1  0
M  END
>  <MolRegNo>  (1) 
1589886

>  <m>  (1) 
=

>  <Value>  (1) 
110

>  <Unit>  (1) 
nM

>  <Type>  (1) 
Ki

>  <pValue>  (1) 
6.96

>  <Ligand Efficiency>  (1) 
0.38

>  <Binding Efficiency>  (1) 
20.5

>  <Surface Efficiency>  (1) 
12.21

>  <Assay Index>  (1) 
803886

>  <Assay Category>  (1) 


>  <Assay Organism>  (1) 
Homo sapiens

>  <Target ID>  (1) 
65

>  <Target Name>  (1) 
Cytochrome P450 19A1

>  <Target Organism>  (1) 
Homo sapiens

>  <Target Description>  (1) 
Target is a single protein chain

>  <Sequence Accession>  (1) 
P11511

>  <Reference>  (1) 
Bioorg Med Chem Lett 23 (22), 6060-6063 (2013)

>  <Pubmed ID>  (1) 
24113062

>  <DOI>  (1) 
10.1016/j.bmcl.2013.09.030

$$$$
