4wnv_ligand_157
     RDKit          2D

 31 35  0  0  0  0  0  0  0  0999 V2000
    0.0000   -0.0000   -0.0000 F   0  0  0  0  0  0  0  0  0  0  0  0
   -1.0110    1.1168   -0.0000 C   0  0  0  0  0  0  0  0  0  0  0  0
   -0.5643    2.5509   -0.0000 C   0  0  0  0  0  0  0  0  0  0  0  0
   -2.4804    0.8229   -0.0000 C   0  0  0  0  0  0  0  0  0  0  0  0
   -1.5752    3.6677   -0.0000 C   0  0  0  0  0  0  0  0  0  0  0  0
   -3.4914    1.9397   -0.0000 C   0  0  0  0  0  0  0  0  0  0  0  0
   -3.0447    3.3738   -0.0000 C   0  0  0  0  0  0  0  0  0  0  0  0
   -4.0556    4.4906   -0.0000 C   0  0  0  0  0  0  0  0  0  0  0  0
   -3.6089    5.9248   -0.0000 N   0  0  0  0  0  0  0  0  0  0  0  0
   -4.5023    7.1473   -0.0000 C   0  0  0  0  0  0  0  0  0  0  0  0
   -2.1983    6.3950   -0.0000 C   0  0  0  0  0  0  0  0  0  0  0  0
   -3.6324    8.3699   -0.0000 N   0  0  0  0  0  0  0  0  0  0  0  0
   -6.0070    7.1591   -0.0000 N   0  0  0  0  0  0  0  0  0  0  0  0
   -2.2100    7.8997   -0.0000 C   0  0  0  0  0  0  0  0  0  0  0  0
   -0.9169    5.6544   -0.0000 C   0  0  0  0  0  0  0  0  0  0  0  0
   -6.7594    5.8777   -0.0000 C   0  0  0  0  0  0  0  0  0  0  0  0
   -6.7594    8.4639   -0.0000 C   0  0  0  0  0  0  0  0  0  0  0  0
   -0.9287    8.6520   -0.0000 C   0  0  0  0  0  0  0  0  0  0  0  0
    0.3644    6.4067   -0.0000 C   0  0  0  0  0  0  0  0  0  0  0  0
   -8.2641    5.8895   -0.0000 C   0  0  0  0  0  0  0  0  0  0  0  0
   -8.2641    8.4757   -0.0000 C   0  0  0  0  0  0  0  0  0  0  0  0
    0.3527    7.9114   -0.0000 C   0  0  0  0  0  0  0  0  0  0  0  0
   -9.0164    7.1943   -0.0000 C   0  0  0  0  0  0  0  0  0  0  0  0
  -10.5211    7.2061   -0.0000 N   0  0  0  0  0  0  0  0  0  0  0  0
  -11.2852    8.5110   -0.0000 C   0  0  0  0  0  0  0  0  0  0  0  0
  -11.2852    5.9248   -0.0000 C   0  0  0  0  0  0  0  0  0  0  0  0
  -12.7899    8.5227   -0.0000 N   0  0  0  0  0  0  0  0  0  0  0  0
  -10.5446    9.8158   -0.0000 N   0  0  0  0  0  0  0  0  0  0  0  0
  -13.5423    9.8276   -0.0000 C   0  0  0  0  0  0  0  0  0  0  0  0
  -11.3087   11.1207   -0.0000 C   0  0  0  0  0  0  0  0  0  0  0  0
  -12.8134   11.1324   -0.0000 C   0  0  0  0  0  0  0  0  0  0  0  0
  1  2  1  0
  2  3  2  0
  2  4  1  0
  3  5  1  0
  4  6  2  0
  5  7  2  0
  7  8  1  0
  8  9  1  0
  9 10  1  0
  9 11  1  0
 10 12  2  0
 10 13  1  0
 11 14  2  0
 11 15  1  0
 13 16  1  0
 13 17  1  0
 14 18  1  0
 15 19  2  0
 16 20  1  0
 17 21  1  0
 18 22  2  0
 20 23  1  0
 23 24  1  0
 24 25  1  0
 24 26  1  0
 25 27  2  0
 25 28  1  0
 27 29  1  0
 28 30  2  0
 29 31  2  0
  6  7  1  0
 12 14  1  0
 19 22  1  0
 21 23  1  0
 30 31  1  0
M  END
>  <MolRegNo>  (1) 
555914

>  <m>  (1) 
=

>  <Value>  (1) 
1036

>  <Unit>  (1) 
nM

>  <Type>  (1) 
Ki

>  <pValue>  (1) 
5.99

>  <Ligand Efficiency>  (1) 
0

>  <Binding Efficiency>  (1) 
0

>  <Surface Efficiency>  (1) 
0

>  <Assay Index>  (1) 
429822

>  <Assay Category>  (1) 


>  <Assay Organism>  (1) 


>  <Target ID>  (1) 
11365

>  <Target Name>  (1) 
Cytochrome P450 2D6

>  <Target Organism>  (1) 
Homo sapiens

>  <Target Description>  (1) 
Target is a single protein chain

>  <Sequence Accession>  (1) 
P10635

>  <Reference>  (1) 
Bioorg Med Chem Lett 19 (15), 4380-4384 (2009)

>  <Pubmed ID>  (1) 
19553115

>  <DOI>  (1) 
10.1016/j.bmcl.2009.05.086

$$$$
