4wnv_ligand_387
     RDKit          2D

 20 22  0  0  0  0  0  0  0  0999 V2000
    0.0000   -0.0000   -0.0000 N   0  0  0  0  0  0  0  0  0  0  0  0
   -0.4748   -1.4124   -0.0000 N   0  0  0  0  0  0  0  0  0  0  0  0
   -1.2344    0.8902   -0.0000 N   0  0  0  0  0  0  0  0  0  0  0  0
   -1.9821   -1.4005   -0.0000 C   0  0  0  0  0  0  0  0  0  0  0  0
   -2.4450    0.0119   -0.0000 C   0  0  0  0  0  0  0  0  0  0  0  0
   -1.2462    2.3975   -0.0000 C   0  0  0  0  0  0  0  0  0  0  0  0
   -2.5518    3.1571   -0.0000 C   0  0  0  0  0  0  0  0  0  0  0  0
   -3.8574    2.4212   -0.0000 C   0  0  0  0  0  0  0  0  0  0  0  0
   -2.5637    4.6644   -0.0000 C   0  0  0  0  0  0  0  0  0  0  0  0
   -5.1629    3.1808   -0.0000 C   0  0  0  0  0  0  0  0  0  0  0  0
   -3.8574    0.9495   -0.0000 C   0  0  0  0  0  0  0  0  0  0  0  0
   -1.2818    5.4240   -0.0000 C   0  0  0  0  0  0  0  0  0  0  0  0
   -6.4685    2.4450   -0.0000 C   0  0  0  0  0  0  0  0  0  0  0  0
   -5.1629    0.2018   -0.0000 C   0  0  0  0  0  0  0  0  0  0  0  0
    0.0000    4.6882   -0.0000 C   0  0  0  0  0  0  0  0  0  0  0  0
   -1.2937    6.9432   -0.0000 C   0  0  0  0  0  0  0  0  0  0  0  0
   -6.4804    0.9614   -0.0000 C   0  0  0  0  0  0  0  0  0  0  0  0
    1.2937    5.4478   -0.0000 C   0  0  0  0  0  0  0  0  0  0  0  0
   -0.0119    7.7029   -0.0000 C   0  0  0  0  0  0  0  0  0  0  0  0
    1.2818    6.9670   -0.0000 C   0  0  0  0  0  0  0  0  0  0  0  0
  1  2  2  0
  1  3  1  0
  2  4  1  0
  3  5  1  0
  3  6  1  0
  6  7  1  0
  7  8  1  0
  7  9  2  0
  8 10  2  0
  8 11  1  0
  9 12  1  0
 10 13  1  0
 11 14  2  0
 12 15  2  0
 12 16  1  0
 13 17  2  0
 15 18  1  0
 16 19  2  0
 18 20  2  0
  4  5  2  0
 14 17  1  0
 19 20  1  0
M  END
>  <MolRegNo>  (1) 
2344357

>  <m>  (1) 
=

>  <Value>  (1) 
100

>  <Unit>  (1) 
nM

>  <Type>  (1) 
Ki

>  <pValue>  (1) 
7

>  <Ligand Efficiency>  (1) 
0.48

>  <Binding Efficiency>  (1) 
26.79

>  <Surface Efficiency>  (1) 
22.79

>  <Assay Index>  (1) 
1255696

>  <Assay Category>  (1) 


>  <Assay Organism>  (1) 
Homo sapiens

>  <Target ID>  (1) 
65

>  <Target Name>  (1) 
Cytochrome P450 19A1

>  <Target Organism>  (1) 
Homo sapiens

>  <Target Description>  (1) 
Target is a single protein chain

>  <Sequence Accession>  (1) 
P11511

>  <Reference>  (1) 
Bioorg Med Chem Lett 29 (11), 1395-1398 (2019)

>  <Pubmed ID>  (1) 
30952594

>  <DOI>  (1) 
10.1016/j.bmcl.2019.03.033

$$$$
