4wnv_ligand_106
     RDKit          2D

 22 25  0  0  1  0  0  0  0  0999 V2000
    0.0000   -0.0000   -0.0000 O   0  0  0  0  0  0  0  0  0  0  0  0
    1.2874    0.7689   -0.0000 C   0  0  0  0  0  0  0  0  0  0  0  0
    2.5749    0.0358   -0.0000 C   0  0  0  0  0  0  0  0  0  0  0  0
    1.2696    2.2888   -0.0000 C   0  0  0  0  0  0  0  0  0  0  0  0
    3.8444    0.8046   -0.0000 C   0  0  0  0  0  0  0  0  0  0  0  0
    2.5570    3.0577   -0.0000 C   0  0  0  0  0  0  0  0  0  0  0  0
    3.8265    2.3245   -0.0000 C   0  0  0  0  0  0  0  0  0  0  0  0
    5.1319    0.0715   -0.0000 C   0  0  0  0  0  0  0  0  0  0  0  0
    5.1140    3.0934   -0.0000 C   0  0  0  0  0  0  0  0  0  0  0  0
    3.8087    3.8444   -0.0000 C   0  0  0  0  0  0  0  0  0  0  0  0
    6.4193    0.8404   -0.0000 C   0  0  0  0  0  0  0  0  0  0  0  0
    6.3835    2.3424   -0.0000 C   0  0  0  0  0  0  0  0  0  0  0  0
    5.0782    4.6312   -0.0000 C   0  0  0  0  0  0  0  0  0  0  0  0
    2.4855    4.6133   -0.0000 C   0  0  0  0  0  0  0  0  0  0  0  0
    7.6888    3.2722   -0.0000 C   0  0  0  0  0  0  0  0  0  0  0  0
    6.4014    5.3643   -0.0000 C   0  0  0  0  0  0  0  0  0  0  0  0
    7.6710    4.5954   -0.0000 C   0  0  0  0  0  0  0  0  0  0  0  0
    9.9418    3.2901   -0.0000 C   0  0  0  0  0  0  0  0  0  0  0  0
    8.7975    5.2749   -0.0000 C   0  0  0  0  0  0  0  0  0  0  0  0
    7.6531    6.1153   -0.0000 C   0  0  0  0  0  0  0  0  0  0  0  0
    9.9240    4.6133   -0.0000 C   0  0  0  0  0  0  0  0  0  0  0  0
    8.7796    6.6160   -0.0000 O   0  0  0  0  0  0  0  0  0  0  0  0
  1  2  2  0
  2  3  1  0
  2  4  1  0
  3  5  2  0
  4  6  1  0
  5  7  1  0
  5  8  1  0
  7  9  1  0
  7 10  1  1
  8 11  1  0
  9 12  1  0
  9 13  1  0
 10 14  1  0
 12 15  1  0
 13 16  1  0
 15 17  1  0
 15 18  1  0
 17 19  1  0
 17 20  1  1
 18 21  1  0
 19 22  2  0
  6  7  1  0
 11 12  1  0
 16 17  1  0
 19 21  1  0
M  END
>  <MolRegNo>  (1) 
163604

>  <m>  (1) 
=

>  <Value>  (1) 
9

>  <Unit>  (1) 
nM

>  <Type>  (1) 
Ki

>  <pValue>  (1) 
8.05

>  <Ligand Efficiency>  (1) 
0.5

>  <Binding Efficiency>  (1) 
26.78

>  <Surface Efficiency>  (1) 
23.57

>  <Assay Index>  (1) 
50795

>  <Assay Category>  (1) 


>  <Assay Organism>  (1) 


>  <Target ID>  (1) 
65

>  <Target Name>  (1) 
Cytochrome P450 19A1

>  <Target Organism>  (1) 
Homo sapiens

>  <Target Description>  (1) 
Target is a single protein chain

>  <Sequence Accession>  (1) 
P11511

>  <Reference>  (1) 
J Med Chem 33 (11), 2933-2942 (1990)

>  <Pubmed ID>  (1) 
2231592

>  <DOI>  (1) 
10.1021/jm00173a001

$$$$
