4wnv_ligand_197
     RDKit          2D

 24 26  0  0  0  0  0  0  0  0999 V2000
    0.0000   -0.0000   -0.0000 Br  0  0  0  0  0  0  0  0  0  0  0  0
   -1.3057   -0.7411   -0.0000 C   0  0  0  0  0  0  0  0  0  0  0  0
   -2.6114    0.0235   -0.0000 C   0  0  0  0  0  0  0  0  0  0  0  0
   -1.3174   -2.2232   -0.0000 C   0  0  0  0  0  0  0  0  0  0  0  0
   -3.9171   -0.7175   -0.0000 C   0  0  0  0  0  0  0  0  0  0  0  0
   -2.6231   -2.9525   -0.0000 C   0  0  0  0  0  0  0  0  0  0  0  0
   -3.9288   -2.1997   -0.0000 C   0  0  0  0  0  0  0  0  0  0  0  0
   -5.2227    0.0471   -0.0000 C   0  0  0  0  0  0  0  0  0  0  0  0
   -6.5284   -0.6940   -0.0000 N   0  0  0  0  0  0  0  0  0  0  0  0
   -6.6931   -2.1644   -0.0000 N   0  0  0  0  0  0  0  0  0  0  0  0
   -7.9047   -0.0706   -0.0000 C   0  0  0  0  0  0  0  0  0  0  0  0
   -8.1635   -2.4584   -0.0000 N   0  0  0  0  0  0  0  0  0  0  0  0
   -8.2223    1.3998   -0.0000 C   0  0  0  0  0  0  0  0  0  0  0  0
   -8.9163   -1.1645   -0.0000 C   0  0  0  0  0  0  0  0  0  0  0  0
   -9.6574    1.8703   -0.0000 C   0  0  0  0  0  0  0  0  0  0  0  0
   -7.1283    2.4114   -0.0000 C   0  0  0  0  0  0  0  0  0  0  0  0
  -10.4102   -0.9998   -0.0000 C   0  0  0  0  0  0  0  0  0  0  0  0
   -9.9750    3.3407   -0.0000 C   0  0  0  0  0  0  0  0  0  0  0  0
   -7.4459    3.8818   -0.0000 C   0  0  0  0  0  0  0  0  0  0  0  0
  -10.9630    0.4117   -0.0000 O   0  0  0  0  0  0  0  0  0  0  0  0
  -11.3630   -2.1526   -0.0000 O   0  0  0  0  0  0  0  0  0  0  0  0
   -8.8810    4.3523   -0.0000 C   0  0  0  0  0  0  0  0  0  0  0  0
  -12.8451   -1.9056   -0.0000 C   0  0  0  0  0  0  0  0  0  0  0  0
  -13.7979   -3.0584   -0.0000 C   0  0  0  0  0  0  0  0  0  0  0  0
  1  2  1  0
  2  3  2  0
  2  4  1  0
  3  5  1  0
  4  6  2  0
  5  7  2  0
  5  8  1  0
  8  9  1  0
  9 10  1  0
  9 11  1  0
 10 12  2  0
 11 13  1  0
 11 14  2  0
 13 15  2  0
 13 16  1  0
 14 17  1  0
 15 18  1  0
 16 19  2  0
 17 20  2  0
 17 21  1  0
 18 22  2  0
 21 23  1  0
 23 24  1  0
  6  7  1  0
 12 14  1  0
 19 22  1  0
M  END
>  <MolRegNo>  (1) 
1787340

>  <m>  (1) 
=

>  <Value>  (1) 
150

>  <Unit>  (1) 
nM

>  <Type>  (1) 
Ki

>  <pValue>  (1) 
6.82

>  <Ligand Efficiency>  (1) 
0.39

>  <Binding Efficiency>  (1) 
17.67

>  <Surface Efficiency>  (1) 
11.97

>  <Assay Index>  (1) 
897972

>  <Assay Category>  (1) 


>  <Assay Organism>  (1) 
Homo sapiens

>  <Target ID>  (1) 
65

>  <Target Name>  (1) 
Cytochrome P450 19A1

>  <Target Organism>  (1) 
Homo sapiens

>  <Target Description>  (1) 
Target is a single protein chain

>  <Sequence Accession>  (1) 
P11511

>  <Reference>  (1) 
Bioorg Med Chem Lett 24 (18), 4586-4589 (2014)

>  <Pubmed ID>  (1) 
25155384

>  <DOI>  (1) 
10.1016/j.bmcl.2014.07.083

$$$$
