4wnv_ligand_54
     RDKit          2D

 26 30  0  0  1  0  0  0  0  0999 V2000
    0.0000   -0.0000   -0.0000 O   0  0  0  0  0  0  0  0  0  0  0  0
    1.4639    0.1547   -0.0000 C   0  0  0  0  0  0  0  0  0  0  0  0
    2.3208   -1.0354   -0.0000 O   0  0  0  0  0  0  0  0  0  0  0  0
    2.0590    1.5234   -0.0000 C   0  0  0  0  0  0  0  0  0  0  0  0
    1.6900   -2.3922   -0.0000 C   0  0  0  0  0  0  0  0  0  0  0  0
    3.5585    1.6900   -0.0000 C   0  0  0  0  0  0  0  0  0  0  0  0
    1.1782    2.7492   -0.0000 C   0  0  0  0  0  0  0  0  0  0  0  0
    4.1536    3.0825   -0.0000 O   0  0  0  0  0  0  0  0  0  0  0  0
    1.7852    4.1298   -0.0000 C   0  0  0  0  0  0  0  0  0  0  0  0
   -0.3094    2.6183   -0.0000 C   0  0  0  0  0  0  0  0  0  0  0  0
    3.2610    4.3083   -0.0000 C   0  0  0  0  0  0  0  0  0  0  0  0
    0.8926    5.3676   -0.0000 C   0  0  0  0  0  0  0  0  0  0  0  0
   -1.2020    3.8323   -0.0000 C   0  0  0  0  0  0  0  0  0  0  0  0
    3.8561    5.6770   -0.0000 C   0  0  0  0  0  0  0  0  0  0  0  0
   -0.6070    5.2128   -0.0000 N   0  0  0  0  0  0  0  0  0  0  0  0
   -2.6778    3.6895   -0.0000 C   0  0  0  0  0  0  0  0  0  0  0  0
   -1.4996    6.4268   -0.0000 C   0  0  0  0  0  0  0  0  0  0  0  0
   -3.5704    2.4993   -0.0000 N   0  0  0  0  0  0  0  0  0  0  0  0
   -3.5823    4.9153   -0.0000 C   0  0  0  0  0  0  0  0  0  0  0  0
   -2.9992    6.2840   -0.0000 C   0  0  0  0  0  0  0  0  0  0  0  0
   -4.9986    2.9635   -0.0000 C   0  0  0  0  0  0  0  0  0  0  0  0
   -5.0105    4.4512   -0.0000 C   0  0  0  0  0  0  0  0  0  0  0  0
   -6.3078    2.2137   -0.0000 C   0  0  0  0  0  0  0  0  0  0  0  0
   -6.3197    5.2128   -0.0000 C   0  0  0  0  0  0  0  0  0  0  0  0
   -7.6050    2.9754   -0.0000 C   0  0  0  0  0  0  0  0  0  0  0  0
   -7.6169    4.4631   -0.0000 C   0  0  0  0  0  0  0  0  0  0  0  0
  1  2  2  0
  2  3  1  0
  2  4  1  0
  3  5  1  0
  4  6  2  0
  4  7  1  0
  6  8  1  0
  7  9  1  0
  7 10  1  1
  8 11  1  0
  9 12  1  6
 10 13  1  0
 11 14  1  6
 12 15  1  0
 13 16  2  0
 15 17  2  0
 16 18  1  0
 16 19  1  0
 17 20  1  0
 18 21  1  0
 19 22  1  0
 21 23  2  0
 22 24  2  0
 23 25  1  0
 24 26  1  0
  9 11  1  0
 13 15  1  0
 19 20  2  0
 21 22  1  0
 25 26  2  0
M  CHG  1  15   1
M  END
>  <MolRegNo>  (1) 
1941319

>  <m>  (1) 
=

>  <Value>  (1) 
2200

>  <Unit>  (1) 
nM

>  <Type>  (1) 
Ki

>  <pValue>  (1) 
5.66

>  <Ligand Efficiency>  (1) 
0

>  <Binding Efficiency>  (1) 
0

>  <Surface Efficiency>  (1) 
0

>  <Assay Index>  (1) 
122804

>  <Assay Category>  (1) 


>  <Assay Organism>  (1) 
Homo sapiens

>  <Target ID>  (1) 
11365

>  <Target Name>  (1) 
Cytochrome P450 2D6

>  <Target Organism>  (1) 
Homo sapiens

>  <Target Description>  (1) 
Target is a single protein chain

>  <Sequence Accession>  (1) 
P10635

>  <Reference>  (1) 
J Med Chem 36 (9), 1136-1145 (1993)

>  <Pubmed ID>  (1) 
8487254

>  <DOI>  (1) 
10.1021/jm00061a004

$$$$
