4wnv_ligand_238
     RDKit          2D

 21 24  0  0  0  0  0  0  0  0999 V2000
    0.0000   -0.0000   -0.0000 O   0  0  0  0  0  0  0  0  0  0  0  0
    1.0631    0.6338   -0.0000 C   0  0  0  0  0  0  0  0  0  0  0  0
    2.3306   -0.1022   -0.0000 C   0  0  0  0  0  0  0  0  0  0  0  0
    1.0426    2.1466   -0.0000 C   0  0  0  0  0  0  0  0  0  0  0  0
    3.5981    0.6951   -0.0000 C   0  0  0  0  0  0  0  0  0  0  0  0
    2.2897    2.9030   -0.0000 C   0  0  0  0  0  0  0  0  0  0  0  0
    4.8861   -0.0409   -0.0000 C   0  0  0  0  0  0  0  0  0  0  0  0
    3.5777    2.2079   -0.0000 C   0  0  0  0  0  0  0  0  0  0  0  0
    6.1536    0.7564   -0.0000 C   0  0  0  0  0  0  0  0  0  0  0  0
    4.8452    2.9644   -0.0000 C   0  0  0  0  0  0  0  0  0  0  0  0
    3.5368    3.4755   -0.0000 C   0  0  0  0  0  0  0  0  0  0  0  0
    6.1127    2.2693   -0.0000 C   0  0  0  0  0  0  0  0  0  0  0  0
    4.8043    4.4977   -0.0000 C   0  0  0  0  0  0  0  0  0  0  0  0
    7.3803    3.0257   -0.0000 C   0  0  0  0  0  0  0  0  0  0  0  0
    6.0719    5.2745   -0.0000 C   0  0  0  0  0  0  0  0  0  0  0  0
    7.3598    4.5386   -0.0000 C   0  0  0  0  0  0  0  0  0  0  0  0
    9.9562    3.0257   -0.0000 C   0  0  0  0  0  0  0  0  0  0  0  0
    8.6273    5.3359   -0.0000 C   0  0  0  0  0  0  0  0  0  0  0  0
    7.3394    5.8061   -0.0000 C   0  0  0  0  0  0  0  0  0  0  0  0
    9.9358    4.5794   -0.0000 C   0  0  0  0  0  0  0  0  0  0  0  0
    8.6069    6.6034   -0.0000 O   0  0  0  0  0  0  0  0  0  0  0  0
  1  2  2  0
  2  3  1  0
  2  4  1  0
  3  5  2  0
  4  6  1  0
  5  7  1  0
  5  8  1  0
  7  9  2  0
  8 10  1  0
  8 11  1  6
 12  9  1  1
 10 13  1  6
 12 14  1  0
 13 15  1  0
 14 16  1  0
 14 17  1  6
 16 18  1  0
 16 19  1  6
 17 20  1  0
 18 21  2  0
  6  8  1  0
 10 12  1  0
 15 16  1  0
 18 20  1  0
M  END
>  <MolRegNo>  (1) 
2057934

>  <m>  (1) 
=

>  <Value>  (1) 
17

>  <Unit>  (1) 
nM

>  <Type>  (1) 
Ki

>  <pValue>  (1) 
7.77

>  <Ligand Efficiency>  (1) 
0.51

>  <Binding Efficiency>  (1) 
27.32

>  <Surface Efficiency>  (1) 
22.76

>  <Assay Index>  (1) 
985353

>  <Assay Category>  (1) 


>  <Assay Organism>  (1) 
Homo sapiens

>  <Target ID>  (1) 
65

>  <Target Name>  (1) 
Cytochrome P450 19A1

>  <Target Organism>  (1) 
Homo sapiens

>  <Target Description>  (1) 
Target is a single protein chain

>  <Sequence Accession>  (1) 
P11511

>  <Reference>  (1) 


>  <Pubmed ID>  (1) 
26469743

>  <DOI>  (1) 
10.1016/j.ejmech.2015.09.038

$$$$
