4wnv_ligand_270
     RDKit          2D

 23 27  0  0  0  0  0  0  0  0999 V2000
    0.0000   -0.0000   -0.0000 O   0  0  0  0  0  0  0  0  0  0  0  0
    1.0313    0.6239   -0.0000 C   0  0  0  0  0  0  0  0  0  0  0  0
    2.3937   -0.1401   -0.0000 C   0  0  0  0  0  0  0  0  0  0  0  0
    1.0186    2.2028   -0.0000 C   0  0  0  0  0  0  0  0  0  0  0  0
    3.6925   -1.0441   -0.0000 O   0  0  0  0  0  0  0  0  0  0  0  0
    3.6925    0.6494   -0.0000 C   0  0  0  0  0  0  0  0  0  0  0  0
    2.3301    2.9795   -0.0000 C   0  0  0  0  0  0  0  0  0  0  0  0
    3.6797    2.2282   -0.0000 C   0  0  0  0  0  0  0  0  0  0  0  0
    5.0294   -0.1146   -0.0000 C   0  0  0  0  0  0  0  0  0  0  0  0
    4.9658    3.0049   -0.0000 C   0  0  0  0  0  0  0  0  0  0  0  0
    2.3555    1.4770   -0.0000 C   0  0  0  0  0  0  0  0  0  0  0  0
    6.3409    0.6748   -0.0000 C   0  0  0  0  0  0  0  0  0  0  0  0
    6.3154    2.2537   -0.0000 C   0  0  0  0  0  0  0  0  0  0  0  0
    4.9530    4.6220   -0.0000 C   0  0  0  0  0  0  0  0  0  0  0  0
    1.4643    1.9863   -0.0000 O   0  0  0  0  0  0  0  0  0  0  0  0
    7.6396    3.0558   -0.0000 C   0  0  0  0  0  0  0  0  0  0  0  0
    6.2645    5.4114   -0.0000 C   0  0  0  0  0  0  0  0  0  0  0  0
    7.6269    4.6856   -0.0000 C   0  0  0  0  0  0  0  0  0  0  0  0
    9.1039    2.5975   -0.0000 C   0  0  0  0  0  0  0  0  0  0  0  0
    9.0402    5.1313   -0.0000 C   0  0  0  0  0  0  0  0  0  0  0  0
    7.7415    5.9080   -0.0000 C   0  0  0  0  0  0  0  0  0  0  0  0
    9.9952    3.8325   -0.0000 C   0  0  0  0  0  0  0  0  0  0  0  0
    9.4095    6.2900   -0.0000 O   0  0  0  0  0  0  0  0  0  0  0  0
  1  2  2  0
  2  3  1  0
  2  4  1  0
  3  5  1  6
  3  6  1  0
  4  7  1  0
  6  8  1  0
  6  9  1  1
  8 10  1  0
  8 11  1  6
  9 12  1  0
 10 13  1  0
 10 14  1  6
 11 15  1  0
 13 16  1  0
 14 17  1  0
 16 18  1  0
 16 19  1  6
 18 20  1  0
 18 21  1  6
 19 22  1  0
 20 23  2  0
  6  5  1  0
  7  8  1  0
 13 12  1  1
 17 18  1  0
 20 22  1  0
M  END
>  <MolRegNo>  (1) 
2058244

>  <m>  (1) 
=

>  <Value>  (1) 
5000

>  <Unit>  (1) 
nM

>  <Type>  (1) 
Ki

>  <pValue>  (1) 
5.3

>  <Ligand Efficiency>  (1) 
0.31

>  <Binding Efficiency>  (1) 
16.65

>  <Surface Efficiency>  (1) 
7.92

>  <Assay Index>  (1) 
985353

>  <Assay Category>  (1) 


>  <Assay Organism>  (1) 
Homo sapiens

>  <Target ID>  (1) 
65

>  <Target Name>  (1) 
Cytochrome P450 19A1

>  <Target Organism>  (1) 
Homo sapiens

>  <Target Description>  (1) 
Target is a single protein chain

>  <Sequence Accession>  (1) 
P11511

>  <Reference>  (1) 


>  <Pubmed ID>  (1) 
26469743

>  <DOI>  (1) 
10.1016/j.ejmech.2015.09.038

$$$$
