4wnv_ligand_124
     RDKit          2D

 22 24  0  0  0  0  0  0  0  0999 V2000
    0.0000   -0.0000   -0.0000 O   0  0  0  0  0  0  0  0  0  0  0  0
    1.2837    0.7607   -0.0000 C   0  0  0  0  0  0  0  0  0  0  0  0
    2.5675    0.0238   -0.0000 C   0  0  0  0  0  0  0  0  0  0  0  0
    1.2718    2.2822   -0.0000 C   0  0  0  0  0  0  0  0  0  0  0  0
    3.8512    0.7845   -0.0000 C   0  0  0  0  0  0  0  0  0  0  0  0
    2.5556    3.0429   -0.0000 C   0  0  0  0  0  0  0  0  0  0  0  0
    3.8512    2.3060   -0.0000 C   0  0  0  0  0  0  0  0  0  0  0  0
    5.1349    0.0475   -0.0000 C   0  0  0  0  0  0  0  0  0  0  0  0
    5.1349    3.0667   -0.0000 C   0  0  0  0  0  0  0  0  0  0  0  0
    3.8274    3.8155   -0.0000 C   0  0  0  0  0  0  0  0  0  0  0  0
    6.4305    0.8083   -0.0000 C   0  0  0  0  0  0  0  0  0  0  0  0
    6.4186    2.3178   -0.0000 C   0  0  0  0  0  0  0  0  0  0  0  0
    5.1230    4.5881   -0.0000 C   0  0  0  0  0  0  0  0  0  0  0  0
    7.7024    3.0786   -0.0000 C   0  0  0  0  0  0  0  0  0  0  0  0
    6.4305    5.3489   -0.0000 C   0  0  0  0  0  0  0  0  0  0  0  0
    7.7142    4.5881   -0.0000 C   0  0  0  0  0  0  0  0  0  0  0  0
    9.1525    5.0517   -0.0000 C   0  0  0  0  0  0  0  0  0  0  0  0
    7.7024    6.1096   -0.0000 C   0  0  0  0  0  0  0  0  0  0  0  0
   10.2341    4.0414   -0.0000 O   0  0  0  0  0  0  0  0  0  0  0  0
   11.6486    4.5049   -0.0000 C   0  0  0  0  0  0  0  0  0  0  0  0
   11.9814    5.9788   -0.0000 O   0  0  0  0  0  0  0  0  0  0  0  0
   12.7422    3.4946   -0.0000 C   0  0  0  0  0  0  0  0  0  0  0  0
  1  2  2  0
  2  3  1  0
  2  4  1  0
  3  5  2  0
  4  6  2  0
  5  7  1  0
  5  8  1  0
  7  9  1  0
  7 10  1  0
  8 11  1  0
  9 12  1  0
  9 13  1  0
 12 14  1  0
 13 15  1  0
 14 16  1  0
 16 17  1  0
 16 18  1  0
 17 19  1  0
 19 20  1  0
 20 21  2  0
 20 22  1  0
  6  7  1  0
 11 12  1  0
 15 16  1  0
M  END
>  <MolRegNo>  (1) 
264587

>  <m>  (1) 
=

>  <Value>  (1) 
13000

>  <Unit>  (1) 
nM

>  <Type>  (1) 
Ki

>  <pValue>  (1) 
4.89

>  <Ligand Efficiency>  (1) 
0.3

>  <Binding Efficiency>  (1) 
16.16

>  <Surface Efficiency>  (1) 
11.27

>  <Assay Index>  (1) 
50925

>  <Assay Category>  (1) 


>  <Assay Organism>  (1) 
Homo sapiens

>  <Target ID>  (1) 
65

>  <Target Name>  (1) 
Cytochrome P450 19A1

>  <Target Organism>  (1) 
Homo sapiens

>  <Target Description>  (1) 
Target is a single protein chain

>  <Sequence Accession>  (1) 
P11511

>  <Reference>  (1) 
J Med Chem 32 (3), 651-658 (1989)

>  <Pubmed ID>  (1) 
2918514

>  <DOI>  (1) 
10.1021/jm00123a026

$$$$
