4wnv_ligand_32
     RDKit          2D

 39 42  0  0  0  0  0  0  0  0999 V2000
    0.0000   -0.0000   -0.0000 F   0  0  0  0  0  0  0  0  0  0  0  0
    1.3085   -0.7563   -0.0000 C   0  0  0  0  0  0  0  0  0  0  0  0
    2.6050    0.0120   -0.0000 C   0  0  0  0  0  0  0  0  0  0  0  0
    1.2965   -2.2569   -0.0000 C   0  0  0  0  0  0  0  0  0  0  0  0
    3.8896   -0.7323   -0.0000 C   0  0  0  0  0  0  0  0  0  0  0  0
    2.5930   -3.0012   -0.0000 C   0  0  0  0  0  0  0  0  0  0  0  0
    3.8776   -2.2329   -0.0000 C   0  0  0  0  0  0  0  0  0  0  0  0
    5.1741   -2.9772   -0.0000 C   0  0  0  0  0  0  0  0  0  0  0  0
    5.1621   -4.4658   -0.0000 N   0  0  0  0  0  0  0  0  0  0  0  0
    6.4586   -2.2089   -0.0000 C   0  0  0  0  0  0  0  0  0  0  0  0
    3.8535   -5.2101   -0.0000 C   0  0  0  0  0  0  0  0  0  0  0  0
    6.4586   -5.2101   -0.0000 C   0  0  0  0  0  0  0  0  0  0  0  0
    6.4466   -0.6843   -0.0000 O   0  0  0  0  0  0  0  0  0  0  0  0
    7.7551   -2.9532   -0.0000 N   0  0  0  0  0  0  0  0  0  0  0  0
    3.8415   -6.6987   -0.0000 C   0  0  0  0  0  0  0  0  0  0  0  0
    6.4466   -6.6987   -0.0000 C   0  0  0  0  0  0  0  0  0  0  0  0
    9.0396   -2.1849   -0.0000 C   0  0  0  0  0  0  0  0  0  0  0  0
    5.1261   -7.4430   -0.0000 N   0  0  0  0  0  0  0  0  0  0  0  0
    9.0276   -0.6603   -0.0000 C   0  0  0  0  0  0  0  0  0  0  0  0
    5.1141   -8.9316   -0.0000 C   0  0  0  0  0  0  0  0  0  0  0  0
    7.7191    0.1080   -0.0000 C   0  0  0  0  0  0  0  0  0  0  0  0
   10.3121    0.1080   -0.0000 C   0  0  0  0  0  0  0  0  0  0  0  0
    6.3986   -9.6759   -0.0000 C   0  0  0  0  0  0  0  0  0  0  0  0
    7.7071    1.6327   -0.0000 C   0  0  0  0  0  0  0  0  0  0  0  0
   10.3001    1.6327   -0.0000 C   0  0  0  0  0  0  0  0  0  0  0  0
    7.6831   -8.9076   -0.0000 O   0  0  0  0  0  0  0  0  0  0  0  0
    6.3866  -11.1885   -0.0000 C   0  0  0  0  0  0  0  0  0  0  0  0
    8.9916    2.4010   -0.0000 C   0  0  0  0  0  0  0  0  0  0  0  0
    7.6711  -11.9208   -0.0000 O   0  0  0  0  0  0  0  0  0  0  0  0
    8.9796    3.9136   -0.0000 O   0  0  0  0  0  0  0  0  0  0  0  0
    7.6591  -13.4214   -0.0000 C   0  0  0  0  0  0  0  0  0  0  0  0
   10.2641    4.6699   -0.0000 C   0  0  0  0  0  0  0  0  0  0  0  0
    6.3385  -14.1657   -0.0000 C   0  0  0  0  0  0  0  0  0  0  0  0
    8.9436  -14.1657   -0.0000 C   0  0  0  0  0  0  0  0  0  0  0  0
    6.3265  -15.6543   -0.0000 C   0  0  0  0  0  0  0  0  0  0  0  0
    8.9316  -15.6543   -0.0000 C   0  0  0  0  0  0  0  0  0  0  0  0
    7.6231  -16.3986   -0.0000 C   0  0  0  0  0  0  0  0  0  0  0  0
    7.6231  -17.8872   -0.0000 O   0  0  0  0  0  0  0  0  0  0  0  0
    8.9196  -18.6315   -0.0000 C   0  0  0  0  0  0  0  0  0  0  0  0
  1  2  1  0
  2  3  2  0
  2  4  1  0
  3  5  1  0
  4  6  2  0
  5  7  2  0
  7  8  1  0
  8  9  1  0
  8 10  1  0
  9 11  1  0
  9 12  1  0
 10 13  2  0
 10 14  1  0
 11 15  1  0
 12 16  1  0
 14 17  1  0
 15 18  1  0
 17 19  1  0
 18 20  1  0
 19 21  2  0
 19 22  1  0
 20 23  1  0
 21 24  1  0
 22 25  2  0
 23 26  1  0
 23 27  1  0
 24 28  2  0
 27 29  1  0
 28 30  1  0
 29 31  1  0
 30 32  1  0
 31 33  2  0
 31 34  1  0
 33 35  1  0
 34 36  2  0
 35 37  2  0
 37 38  1  0
 38 39  1  0
  6  7  1  0
 16 18  1  0
 25 28  1  0
 36 37  1  0
M  END
>  <MolRegNo>  (1) 
97976

>  <m>  (1) 
=

>  <Value>  (1) 
7000

>  <Unit>  (1) 
nM

>  <Type>  (1) 
Ki

>  <pValue>  (1) 
5.16

>  <Ligand Efficiency>  (1) 
0

>  <Binding Efficiency>  (1) 
0

>  <Surface Efficiency>  (1) 
0

>  <Assay Index>  (1) 
51650

>  <Assay Category>  (1) 


>  <Assay Organism>  (1) 


>  <Target ID>  (1) 
11365

>  <Target Name>  (1) 
Cytochrome P450 2D6

>  <Target Organism>  (1) 
Homo sapiens

>  <Target Description>  (1) 
Target is a single protein chain

>  <Sequence Accession>  (1) 
P10635

>  <Reference>  (1) 
Bioorg Med Chem Lett 14 (9), 2025-2030 (2004)

>  <Pubmed ID>  (1) 
15080972

>  <DOI>  (1) 
10.1016/j.bmcl.2004.02.078

$$$$
