4wnv_ligand_247
     RDKit          2D

 31 35  0  0  0  0  0  0  0  0999 V2000
    0.0000   -0.0000   -0.0000 O   0  0  0  0  0  0  0  0  0  0  0  0
    1.0552    0.6291   -0.0000 C   0  0  0  0  0  0  0  0  0  0  0  0
    2.3133   -0.1015   -0.0000 C   0  0  0  0  0  0  0  0  0  0  0  0
    1.0349    2.1307   -0.0000 C   0  0  0  0  0  0  0  0  0  0  0  0
    3.5715    0.6899   -0.0000 C   0  0  0  0  0  0  0  0  0  0  0  0
    2.2728    2.8815   -0.0000 C   0  0  0  0  0  0  0  0  0  0  0  0
    3.5512    2.1916   -0.0000 C   0  0  0  0  0  0  0  0  0  0  0  0
    4.8499   -0.0406   -0.0000 C   0  0  0  0  0  0  0  0  0  0  0  0
    4.8093    2.9424   -0.0000 C   0  0  0  0  0  0  0  0  0  0  0  0
    3.5106    3.4497   -0.0000 C   0  0  0  0  0  0  0  0  0  0  0  0
    6.1080    0.7508   -0.0000 C   0  0  0  0  0  0  0  0  0  0  0  0
    4.8499   -1.5625   -0.0000 C   0  0  0  0  0  0  0  0  0  0  0  0
    6.0674    2.2525   -0.0000 C   0  0  0  0  0  0  0  0  0  0  0  0
    4.7687    4.4643   -0.0000 C   0  0  0  0  0  0  0  0  0  0  0  0
    3.5106   -2.3133   -0.0000 C   0  0  0  0  0  0  0  0  0  0  0  0
    7.3256    3.0033   -0.0000 C   0  0  0  0  0  0  0  0  0  0  0  0
    6.0268    5.2354   -0.0000 C   0  0  0  0  0  0  0  0  0  0  0  0
    3.5106   -3.8353   -0.0000 C   0  0  0  0  0  0  0  0  0  0  0  0
    7.3053    4.5049   -0.0000 C   0  0  0  0  0  0  0  0  0  0  0  0
    9.8824    3.0033   -0.0000 C   0  0  0  0  0  0  0  0  0  0  0  0
    2.1713   -4.5861   -0.0000 C   0  0  0  0  0  0  0  0  0  0  0  0
    8.5634    5.2963   -0.0000 C   0  0  0  0  0  0  0  0  0  0  0  0
    7.2850    5.7630   -0.0000 C   0  0  0  0  0  0  0  0  0  0  0  0
    9.8621    4.5455   -0.0000 C   0  0  0  0  0  0  0  0  0  0  0  0
    2.1713   -6.1080   -0.0000 C   0  0  0  0  0  0  0  0  0  0  0  0
    8.5431    6.5545   -0.0000 O   0  0  0  0  0  0  0  0  0  0  0  0
    3.4903   -6.8385   -0.0000 C   0  0  0  0  0  0  0  0  0  0  0  0
    0.8320   -6.8588   -0.0000 C   0  0  0  0  0  0  0  0  0  0  0  0
    3.4903   -8.3605   -0.0000 C   0  0  0  0  0  0  0  0  0  0  0  0
    0.8320   -8.3808   -0.0000 C   0  0  0  0  0  0  0  0  0  0  0  0
    2.1510   -9.1113   -0.0000 C   0  0  0  0  0  0  0  0  0  0  0  0
  1  2  2  0
  2  3  1  0
  2  4  1  0
  3  5  2  0
  4  6  1  0
  5  7  1  0
  5  8  1  0
  7  9  1  0
  7 10  1  6
  8 11  1  0
  8 12  1  6
  9 13  1  0
  9 14  1  6
 12 15  1  0
 13 16  1  0
 14 17  1  0
 15 18  1  0
 16 19  1  0
 16 20  1  6
 18 21  1  0
 19 22  1  0
 19 23  1  6
 20 24  1  0
 21 25  1  0
 22 26  2  0
 25 27  2  0
 25 28  1  0
 27 29  1  0
 28 30  2  0
 29 31  2  0
  6  7  1  0
 13 11  1  1
 17 19  1  0
 22 24  1  0
 30 31  1  0
M  END
>  <MolRegNo>  (1) 
2057943

>  <m>  (1) 
=

>  <Value>  (1) 
16

>  <Unit>  (1) 
nM

>  <Type>  (1) 
Ki

>  <pValue>  (1) 
7.8

>  <Ligand Efficiency>  (1) 
0.34

>  <Binding Efficiency>  (1) 
18.62

>  <Surface Efficiency>  (1) 
22.84

>  <Assay Index>  (1) 
985353

>  <Assay Category>  (1) 


>  <Assay Organism>  (1) 
Homo sapiens

>  <Target ID>  (1) 
65

>  <Target Name>  (1) 
Cytochrome P450 19A1

>  <Target Organism>  (1) 
Homo sapiens

>  <Target Description>  (1) 
Target is a single protein chain

>  <Sequence Accession>  (1) 
P11511

>  <Reference>  (1) 


>  <Pubmed ID>  (1) 
26469743

>  <DOI>  (1) 
10.1016/j.ejmech.2015.09.038

$$$$
