4wnv_ligand_87
     RDKit          2D

 28 31  0  0  1  0  0  0  0  0999 V2000
    0.0000   -0.0000   -0.0000 O   0  0  0  0  0  0  0  0  0  0  0  0
   -0.4848   -1.3952   -0.0000 C   0  0  0  0  0  0  0  0  0  0  0  0
   -1.9272   -1.8326   -0.0000 C   0  0  0  0  0  0  0  0  0  0  0  0
    0.3784   -2.6012   -0.0000 C   0  0  0  0  0  0  0  0  0  0  0  0
   -1.9627   -3.3224   -0.0000 C   0  0  0  0  0  0  0  0  0  0  0  0
   -3.2396   -1.0641   -0.0000 C   0  0  0  0  0  0  0  0  0  0  0  0
   -1.9509   -0.3311   -0.0000 C   0  0  0  0  0  0  0  0  0  0  0  0
   -0.5321   -3.8072   -0.0000 C   0  0  0  0  0  0  0  0  0  0  0  0
   -3.2633   -4.0673   -0.0000 C   0  0  0  0  0  0  0  0  0  0  0  0
   -4.5520   -1.7972   -0.0000 C   0  0  0  0  0  0  0  0  0  0  0  0
   -4.5757   -3.2987   -0.0000 C   0  0  0  0  0  0  0  0  0  0  0  0
   -3.2751   -5.5570   -0.0000 C   0  0  0  0  0  0  0  0  0  0  0  0
   -5.8763   -4.0554   -0.0000 C   0  0  0  0  0  0  0  0  0  0  0  0
   -4.5875   -6.2901   -0.0000 C   0  0  0  0  0  0  0  0  0  0  0  0
   -5.8881   -5.5334   -0.0000 C   0  0  0  0  0  0  0  0  0  0  0  0
   -7.1887   -3.2987   -0.0000 C   0  0  0  0  0  0  0  0  0  0  0  0
   -5.8999   -2.5420   -0.0000 C   0  0  0  0  0  0  0  0  0  0  0  0
   -4.5875   -7.7680   -0.0000 C   0  0  0  0  0  0  0  0  0  0  0  0
   -7.2005   -6.2664   -0.0000 C   0  0  0  0  0  0  0  0  0  0  0  0
   -8.4892   -4.0318   -0.0000 C   0  0  0  0  0  0  0  0  0  0  0  0
   -5.8999   -8.5129   -0.0000 C   0  0  0  0  0  0  0  0  0  0  0  0
   -8.5011   -5.4979   -0.0000 C   0  0  0  0  0  0  0  0  0  0  0  0
   -7.2005   -7.7562   -0.0000 C   0  0  0  0  0  0  0  0  0  0  0  0
   -8.5011   -8.5011   -0.0000 C   0  0  0  0  0  0  0  0  0  0  0  0
   -9.8017   -7.7444   -0.0000 C   0  0  0  0  0  0  0  0  0  0  0  0
  -11.1022   -8.4774   -0.0000 C   0  0  0  0  0  0  0  0  0  0  0  0
  -12.4028   -7.7207   -0.0000 C   0  0  0  0  0  0  0  0  0  0  0  0
  -13.7034   -8.4656   -0.0000 C   0  0  0  0  0  0  0  0  0  0  0  0
  1  2  2  0
  2  3  1  0
  2  4  1  0
  3  5  1  0
  3  6  1  0
  3  7  1  0
  4  8  1  0
  5  9  1  0
  6 10  1  0
  9 11  1  0
  9 12  1  0
 11 13  1  0
 12 14  1  0
 13 15  1  0
 13 16  1  0
 13 17  1  0
 14 18  1  6
 15 19  2  0
 16 20  1  0
 18 21  1  0
 19 22  1  0
 21 23  1  0
 23 24  1  0
 24 25  1  0
 25 26  1  0
 26 27  1  0
 27 28  1  0
  5  8  1  0
 10 11  1  0
 14 15  1  0
 20 22  1  0
M  END
>  <MolRegNo>  (1) 
115037

>  <m>  (1) 
=

>  <Value>  (1) 
4100

>  <Unit>  (1) 
nM

>  <Type>  (1) 
Ki

>  <pValue>  (1) 
5.39

>  <Ligand Efficiency>  (1) 
0.26

>  <Binding Efficiency>  (1) 
14.01

>  <Surface Efficiency>  (1) 
31.56

>  <Assay Index>  (1) 
51103

>  <Assay Category>  (1) 


>  <Assay Organism>  (1) 


>  <Target ID>  (1) 
65

>  <Target Name>  (1) 
Cytochrome P450 19A1

>  <Target Organism>  (1) 
Homo sapiens

>  <Target Description>  (1) 
Target is a single protein chain

>  <Sequence Accession>  (1) 
P11511

>  <Reference>  (1) 
J Med Chem 39 (11), 2245-2252 (1996)

>  <Pubmed ID>  (1) 
8667367

>  <DOI>  (1) 
10.1021/jm960047o

$$$$
