4wnv_ligand_275
     RDKit          2D

 22 25  0  0  0  0  0  0  0  0999 V2000
    0.0000   -0.0000   -0.0000 O   0  0  0  0  0  0  0  0  0  0  0  0
   -1.0919    0.6066   -0.0000 C   0  0  0  0  0  0  0  0  0  0  0  0
   -2.3861   -0.1415   -0.0000 C   0  0  0  0  0  0  0  0  0  0  0  0
   -1.1324    2.1030   -0.0000 C   0  0  0  0  0  0  0  0  0  0  0  0
   -3.7004    0.6269   -0.0000 C   0  0  0  0  0  0  0  0  0  0  0  0
   -2.4265    2.8309   -0.0000 C   0  0  0  0  0  0  0  0  0  0  0  0
    0.1213    2.8512   -0.0000 C   0  0  0  0  0  0  0  0  0  0  0  0
   -3.7207    2.1232   -0.0000 C   0  0  0  0  0  0  0  0  0  0  0  0
   -4.9946   -0.1213   -0.0000 C   0  0  0  0  0  0  0  0  0  0  0  0
   -2.4670    4.3475   -0.0000 C   0  0  0  0  0  0  0  0  0  0  0  0
    0.1011    4.3475   -0.0000 C   0  0  0  0  0  0  0  0  0  0  0  0
    2.6692    2.8512   -0.0000 C   0  0  0  0  0  0  0  0  0  0  0  0
   -5.0350    2.8512   -0.0000 C   0  0  0  0  0  0  0  0  0  0  0  0
   -5.0553    1.3750   -0.0000 C   0  0  0  0  0  0  0  0  0  0  0  0
   -6.2887    0.6471   -0.0000 C   0  0  0  0  0  0  0  0  0  0  0  0
   -1.2133    5.1159   -0.0000 C   0  0  0  0  0  0  0  0  0  0  0  0
    1.3548    5.1361   -0.0000 C   0  0  0  0  0  0  0  0  0  0  0  0
    0.0809    5.6012   -0.0000 C   0  0  0  0  0  0  0  0  0  0  0  0
    2.6490    4.3880   -0.0000 C   0  0  0  0  0  0  0  0  0  0  0  0
   -6.3090    2.1434   -0.0000 C   0  0  0  0  0  0  0  0  0  0  0  0
   -6.1472    2.0019   -0.0000 O   0  0  0  0  0  0  0  0  0  0  0  0
    1.3346    6.3898   -0.0000 O   0  0  0  0  0  0  0  0  0  0  0  0
  1  2  2  0
  2  3  1  0
  4  2  1  1
  3  5  2  0
  4  6  1  0
  4  7  1  0
  5  8  1  0
  5  9  1  0
  6 10  1  6
  7 11  1  0
  7 12  1  6
  8 13  1  0
  8 14  1  6
  9 15  1  0
 10 16  1  0
 11 17  1  0
 11 18  1  6
 12 19  1  0
 13 20  1  0
 14 21  1  0
 17 22  2  0
  6  8  1  0
 11 16  1  0
 15 20  1  0
 17 19  1  0
M  END
>  <MolRegNo>  (1) 
2058097

>  <m>  (1) 
=

>  <Value>  (1) 
11100

>  <Unit>  (1) 
nM

>  <Type>  (1) 
Ki

>  <pValue>  (1) 
4.96

>  <Ligand Efficiency>  (1) 
0.31

>  <Binding Efficiency>  (1) 
16.38

>  <Surface Efficiency>  (1) 
9.11

>  <Assay Index>  (1) 
985355

>  <Assay Category>  (1) 


>  <Assay Organism>  (1) 
Homo sapiens

>  <Target ID>  (1) 
65

>  <Target Name>  (1) 
Cytochrome P450 19A1

>  <Target Organism>  (1) 
Homo sapiens

>  <Target Description>  (1) 
Target is a single protein chain

>  <Sequence Accession>  (1) 
P11511

>  <Reference>  (1) 


>  <Pubmed ID>  (1) 
26469743

>  <DOI>  (1) 
10.1016/j.ejmech.2015.09.038

$$$$
