4wnv_ligand_23
     RDKit          2D

 28 30  0  0  0  0  0  0  0  0999 V2000
    0.0000   -0.0000   -0.0000 Cl  0  0  0  0  0  0  0  0  0  0  0  0
    1.3022   -0.7526   -0.0000 C   0  0  0  0  0  0  0  0  0  0  0  0
    1.2902   -2.2460   -0.0000 C   0  0  0  0  0  0  0  0  0  0  0  0
    2.6044    0.0119   -0.0000 C   0  0  0  0  0  0  0  0  0  0  0  0
    2.5805   -2.9867   -0.0000 C   0  0  0  0  0  0  0  0  0  0  0  0
    3.8946   -0.7287   -0.0000 C   0  0  0  0  0  0  0  0  0  0  0  0
    3.8826   -2.2221   -0.0000 C   0  0  0  0  0  0  0  0  0  0  0  0
    5.1729   -2.9628   -0.0000 C   0  0  0  0  0  0  0  0  0  0  0  0
    5.1609   -4.4561   -0.0000 N   0  0  0  0  0  0  0  0  0  0  0  0
    6.4631   -2.2101   -0.0000 C   0  0  0  0  0  0  0  0  0  0  0  0
    6.4512   -5.1968   -0.0000 C   0  0  0  0  0  0  0  0  0  0  0  0
    3.8468   -5.1968   -0.0000 C   0  0  0  0  0  0  0  0  0  0  0  0
    6.4512   -0.6810   -0.0000 C   0  0  0  0  0  0  0  0  0  0  0  0
    7.7533   -2.9389   -0.0000 C   0  0  0  0  0  0  0  0  0  0  0  0
    6.4392   -6.7020   -0.0000 C   0  0  0  0  0  0  0  0  0  0  0  0
    3.8349   -6.7020   -0.0000 C   0  0  0  0  0  0  0  0  0  0  0  0
    7.7414    0.0836   -0.0000 C   0  0  0  0  0  0  0  0  0  0  0  0
    9.0436   -2.1743   -0.0000 C   0  0  0  0  0  0  0  0  0  0  0  0
    5.1251   -7.4427   -0.0000 N   0  0  0  0  0  0  0  0  0  0  0  0
    9.0316   -0.6571   -0.0000 C   0  0  0  0  0  0  0  0  0  0  0  0
    5.1131   -8.9361   -0.0000 C   0  0  0  0  0  0  0  0  0  0  0  0
    6.4034   -9.6768   -0.0000 C   0  0  0  0  0  0  0  0  0  0  0  0
    6.3914  -11.1701   -0.0000 O   0  0  0  0  0  0  0  0  0  0  0  0
    7.6936   -8.9122   -0.0000 C   0  0  0  0  0  0  0  0  0  0  0  0
    7.6817   -7.3949   -0.0000 O   0  0  0  0  0  0  0  0  0  0  0  0
    8.9719   -6.6304   -0.0000 C   0  0  0  0  0  0  0  0  0  0  0  0
    8.9600   -5.1012   -0.0000 C   0  0  0  0  0  0  0  0  0  0  0  0
   10.2502   -4.3366   -0.0000 C   0  0  0  0  0  0  0  0  0  0  0  0
  1  2  1  0
  2  3  2  0
  2  4  1  0
  3  5  1  0
  4  6  2  0
  5  7  2  0
  7  8  1  0
  8  9  1  0
  8 10  1  0
  9 11  1  0
  9 12  1  0
 10 13  2  0
 10 14  1  0
 11 15  1  0
 12 16  1  0
 13 17  1  0
 14 18  2  0
 15 19  1  0
 17 20  2  0
 19 21  1  0
 21 22  1  0
 22 23  1  0
 22 24  1  0
 24 25  1  0
 25 26  1  0
 26 27  1  0
 27 28  2  0
  6  7  1  0
 16 19  1  0
 18 20  1  0
M  END
>  <MolRegNo>  (1) 
96373

>  <m>  (1) 
=

>  <Value>  (1) 
100

>  <Unit>  (1) 
nM

>  <Type>  (1) 
Ki

>  <pValue>  (1) 
7

>  <Ligand Efficiency>  (1) 
0

>  <Binding Efficiency>  (1) 
0

>  <Surface Efficiency>  (1) 
0

>  <Assay Index>  (1) 
51650

>  <Assay Category>  (1) 


>  <Assay Organism>  (1) 


>  <Target ID>  (1) 
11365

>  <Target Name>  (1) 
Cytochrome P450 2D6

>  <Target Organism>  (1) 
Homo sapiens

>  <Target Description>  (1) 
Target is a single protein chain

>  <Sequence Accession>  (1) 
P10635

>  <Reference>  (1) 
Bioorg Med Chem Lett 14 (9), 2025-2030 (2004)

>  <Pubmed ID>  (1) 
15080972

>  <DOI>  (1) 
10.1016/j.bmcl.2004.02.078

$$$$
