4wnv_ligand_138
     RDKit          2D

 13 14  0  0  0  0  0  0  0  0999 V2000
    0.0000   -0.0000   -0.0000 S   0  0  0  0  0  0  0  0  0  0  0  0
   -1.4952   -0.2255   -0.0000 C   0  0  0  0  0  0  0  0  0  0  0  0
   -2.0411   -1.6139   -0.0000 C   0  0  0  0  0  0  0  0  0  0  0  0
   -3.5007   -1.9936   -0.0000 O   0  0  0  0  0  0  0  0  0  0  0  0
   -1.2341   -2.8599   -0.0000 C   0  0  0  0  0  0  0  0  0  0  0  0
   -3.5956   -3.4651   -0.0000 C   0  0  0  0  0  0  0  0  0  0  0  0
   -2.1835   -4.0110   -0.0000 C   0  0  0  0  0  0  0  0  0  0  0  0
   -4.8654   -4.2720   -0.0000 C   0  0  0  0  0  0  0  0  0  0  0  0
   -4.8773   -5.7673   -0.0000 C   0  0  0  0  0  0  0  0  0  0  0  0
   -6.1707   -3.5126   -0.0000 C   0  0  0  0  0  0  0  0  0  0  0  0
   -6.1945   -6.5030   -0.0000 N   0  0  0  0  0  0  0  0  0  0  0  0
   -7.4761   -4.2483   -0.0000 C   0  0  0  0  0  0  0  0  0  0  0  0
   -7.4998   -5.7435   -0.0000 C   0  0  0  0  0  0  0  0  0  0  0  0
  1  2  1  0
  2  3  1  0
  3  4  1  0
  3  5  2  0
  4  6  1  0
  5  7  1  0
  6  8  1  0
  8  9  2  0
  8 10  1  0
  9 11  1  0
 10 12  2  0
 11 13  2  0
  6  7  2  0
 12 13  1  0
M  END
>  <MolRegNo>  (1) 
361847

>  <m>  (1) 
=

>  <Value>  (1) 
700

>  <Unit>  (1) 
nM

>  <Type>  (1) 
Ki

>  <pValue>  (1) 
6.16

>  <Ligand Efficiency>  (1) 
0

>  <Binding Efficiency>  (1) 
0

>  <Surface Efficiency>  (1) 
0

>  <Assay Index>  (1) 
269558

>  <Assay Category>  (1) 


>  <Assay Organism>  (1) 
Homo sapiens

>  <Target ID>  (1) 
11365

>  <Target Name>  (1) 
Cytochrome P450 2D6

>  <Target Organism>  (1) 
Homo sapiens

>  <Target Description>  (1) 
Target is a single protein chain

>  <Sequence Accession>  (1) 
P10635

>  <Reference>  (1) 
J Med Chem 49 (24), 6987-7001 (2006)

>  <Pubmed ID>  (1) 
17125252

>  <DOI>  (1) 
10.1021/jm060519r

$$$$
