4wnv_ligand_176
     RDKit          2D

 25 27  0  0  0  0  0  0  0  0999 V2000
    0.0000   -0.0000   -0.0000 F   0  0  0  0  0  0  0  0  0  0  0  0
   -1.3090   -0.7497   -0.0000 C   0  0  0  0  0  0  0  0  0  0  0  0
   -1.3209   -2.2372   -0.0000 C   0  0  0  0  0  0  0  0  0  0  0  0
   -2.6299    0.0119   -0.0000 C   0  0  0  0  0  0  0  0  0  0  0  0
   -2.6299   -2.9750   -0.0000 C   0  0  0  0  0  0  0  0  0  0  0  0
   -3.9271   -0.7378   -0.0000 C   0  0  0  0  0  0  0  0  0  0  0  0
   -3.9390   -2.2134   -0.0000 C   0  0  0  0  0  0  0  0  0  0  0  0
   -5.2480   -2.9512   -0.0000 C   0  0  0  0  0  0  0  0  0  0  0  0
   -6.5570   -2.1896   -0.0000 O   0  0  0  0  0  0  0  0  0  0  0  0
   -5.2599   -4.4388   -0.0000 C   0  0  0  0  0  0  0  0  0  0  0  0
   -6.5689   -0.6783   -0.0000 C   0  0  0  0  0  0  0  0  0  0  0  0
   -6.5689   -5.1766   -0.0000 C   0  0  0  0  0  0  0  0  0  0  0  0
   -3.9747   -5.1766   -0.0000 C   0  0  0  0  0  0  0  0  0  0  0  0
   -5.2837    0.0833   -0.0000 O   0  0  0  0  0  0  0  0  0  0  0  0
   -7.8779    0.0833   -0.0000 C   0  0  0  0  0  0  0  0  0  0  0  0
   -7.8779   -4.4150   -0.0000 C   0  0  0  0  0  0  0  0  0  0  0  0
   -6.5808   -6.6760   -0.0000 C   0  0  0  0  0  0  0  0  0  0  0  0
   -3.9866   -6.6641   -0.0000 N   0  0  0  0  0  0  0  0  0  0  0  0
   -9.1869   -5.1528   -0.0000 C   0  0  0  0  0  0  0  0  0  0  0  0
   -7.9017   -7.4138   -0.0000 C   0  0  0  0  0  0  0  0  0  0  0  0
   -2.7727   -7.5209   -0.0000 N   0  0  0  0  0  0  0  0  0  0  0  0
   -5.2004   -7.5328   -0.0000 C   0  0  0  0  0  0  0  0  0  0  0  0
   -9.1988   -6.6522   -0.0000 C   0  0  0  0  0  0  0  0  0  0  0  0
   -3.2487   -8.9370   -0.0000 N   0  0  0  0  0  0  0  0  0  0  0  0
   -4.7482   -8.9489   -0.0000 C   0  0  0  0  0  0  0  0  0  0  0  0
  1  2  1  0
  2  3  2  0
  2  4  1  0
  3  5  1  0
  4  6  2  0
  5  7  2  0
  7  8  1  0
  8  9  1  6
  8 10  1  0
  9 11  1  0
 10 12  1  0
 10 13  1  1
 11 14  2  0
 11 15  1  0
 12 16  2  0
 12 17  1  0
 13 18  1  0
 16 19  1  0
 17 20  2  0
 18 21  1  0
 18 22  1  0
 19 23  2  0
 21 24  2  0
 22 25  2  0
  6  7  1  0
 20 23  1  0
 24 25  1  0
M  END
>  <MolRegNo>  (1) 
1589895

>  <m>  (1) 
=

>  <Value>  (1) 
350

>  <Unit>  (1) 
nM

>  <Type>  (1) 
Ki

>  <pValue>  (1) 
6.46

>  <Ligand Efficiency>  (1) 
0.35

>  <Binding Efficiency>  (1) 
19.02

>  <Surface Efficiency>  (1) 
11.32

>  <Assay Index>  (1) 
803886

>  <Assay Category>  (1) 


>  <Assay Organism>  (1) 
Homo sapiens

>  <Target ID>  (1) 
65

>  <Target Name>  (1) 
Cytochrome P450 19A1

>  <Target Organism>  (1) 
Homo sapiens

>  <Target Description>  (1) 
Target is a single protein chain

>  <Sequence Accession>  (1) 
P11511

>  <Reference>  (1) 
Bioorg Med Chem Lett 23 (22), 6060-6063 (2013)

>  <Pubmed ID>  (1) 
24113062

>  <DOI>  (1) 
10.1016/j.bmcl.2013.09.030

$$$$
