4wnv_ligand_119
     RDKit          2D

 22 24  0  0  0  0  0  0  0  0999 V2000
    0.0000   -0.0000   -0.0000 O   0  0  0  0  0  0  0  0  0  0  0  0
    1.2838    0.7608   -0.0000 C   0  0  0  0  0  0  0  0  0  0  0  0
    2.5677    0.0238   -0.0000 C   0  0  0  0  0  0  0  0  0  0  0  0
    1.2719    2.2824   -0.0000 C   0  0  0  0  0  0  0  0  0  0  0  0
    3.8515    0.7846   -0.0000 C   0  0  0  0  0  0  0  0  0  0  0  0
    2.5558    3.0432   -0.0000 C   0  0  0  0  0  0  0  0  0  0  0  0
    3.8515    2.3061   -0.0000 C   0  0  0  0  0  0  0  0  0  0  0  0
    5.1353    0.0475   -0.0000 C   0  0  0  0  0  0  0  0  0  0  0  0
    5.1353    3.0669   -0.0000 C   0  0  0  0  0  0  0  0  0  0  0  0
    3.8277    3.8158   -0.0000 C   0  0  0  0  0  0  0  0  0  0  0  0
    6.4310    0.8083   -0.0000 C   0  0  0  0  0  0  0  0  0  0  0  0
    6.4191    2.3180   -0.0000 C   0  0  0  0  0  0  0  0  0  0  0  0
    5.1234    4.5885   -0.0000 C   0  0  0  0  0  0  0  0  0  0  0  0
    7.7030    3.0788   -0.0000 C   0  0  0  0  0  0  0  0  0  0  0  0
    6.4310    5.3493   -0.0000 C   0  0  0  0  0  0  0  0  0  0  0  0
    7.7149    4.5885   -0.0000 C   0  0  0  0  0  0  0  0  0  0  0  0
    9.1176    2.6152   -0.0000 C   0  0  0  0  0  0  0  0  0  0  0  0
    9.1532    5.0521   -0.0000 C   0  0  0  0  0  0  0  0  0  0  0  0
    7.7030    6.1101   -0.0000 C   0  0  0  0  0  0  0  0  0  0  0  0
    9.4742    6.5261   -0.0000 O   0  0  0  0  0  0  0  0  0  0  0  0
   10.2350    4.0417   -0.0000 O   0  0  0  0  0  0  0  0  0  0  0  0
   11.6496    4.5053   -0.0000 C   0  0  0  0  0  0  0  0  0  0  0  0
  1  2  2  0
  2  3  1  0
  2  4  1  0
  3  5  2  0
  4  6  2  0
  5  7  1  0
  5  8  1  0
  7  9  1  0
  7 10  1  0
  8 11  1  0
  9 12  1  0
  9 13  1  0
 12 14  1  0
 13 15  1  0
 14 16  1  0
 14 17  1  0
 16 18  1  0
 16 19  1  0
 18 20  2  0
 18 21  1  0
 21 22  1  0
  6  7  1  0
 11 12  1  0
 15 16  1  0
M  END
>  <MolRegNo>  (1) 
264475

>  <m>  (1) 
=

>  <Value>  (1) 
103000

>  <Unit>  (1) 
nM

>  <Type>  (1) 
Ki

>  <pValue>  (1) 
0

>  <Ligand Efficiency>  (1) 
0

>  <Binding Efficiency>  (1) 
0

>  <Surface Efficiency>  (1) 
0

>  <Assay Index>  (1) 
50925

>  <Assay Category>  (1) 


>  <Assay Organism>  (1) 
Homo sapiens

>  <Target ID>  (1) 
65

>  <Target Name>  (1) 
Cytochrome P450 19A1

>  <Target Organism>  (1) 
Homo sapiens

>  <Target Description>  (1) 
Target is a single protein chain

>  <Sequence Accession>  (1) 
P11511

>  <Reference>  (1) 
J Med Chem 32 (3), 651-658 (1989)

>  <Pubmed ID>  (1) 
2918514

>  <DOI>  (1) 
10.1021/jm00123a026

$$$$
