4wnv_ligand_46
     RDKit          2D

 23 27  0  0  1  0  0  0  0  0999 V2000
    0.0000   -0.0000   -0.0000 O   0  0  0  0  0  0  0  0  0  0  0  0
    1.2431    0.7498   -0.0000 C   0  0  0  0  0  0  0  0  0  0  0  0
    2.4862    0.0395   -0.0000 C   0  0  0  0  0  0  0  0  0  0  0  0
    1.2234    2.2099   -0.0000 C   0  0  0  0  0  0  0  0  0  0  0  0
    3.6898    0.7695   -0.0000 C   0  0  0  0  0  0  0  0  0  0  0  0
    2.4664    2.9597   -0.0000 C   0  0  0  0  0  0  0  0  0  0  0  0
    1.1839    3.6898   -0.0000 C   0  0  0  0  0  0  0  0  0  0  0  0
    3.7095    2.2494   -0.0000 C   0  0  0  0  0  0  0  0  0  0  0  0
    4.9526    0.0592   -0.0000 C   0  0  0  0  0  0  0  0  0  0  0  0
    3.6701    3.7095   -0.0000 C   0  0  0  0  0  0  0  0  0  0  0  0
    4.9329    2.9992   -0.0000 C   0  0  0  0  0  0  0  0  0  0  0  0
    6.1957    0.8090   -0.0000 C   0  0  0  0  0  0  0  0  0  0  0  0
    3.7687    5.2683   -0.0000 O   0  0  0  0  0  0  0  0  0  0  0  0
    6.1957    2.2691   -0.0000 C   0  0  0  0  0  0  0  0  0  0  0  0
    4.9131    4.4791   -0.0000 C   0  0  0  0  0  0  0  0  0  0  0  0
    7.4388    3.0189   -0.0000 C   0  0  0  0  0  0  0  0  0  0  0  0
    6.1760    5.2289   -0.0000 C   0  0  0  0  0  0  0  0  0  0  0  0
    7.4388    4.5185   -0.0000 C   0  0  0  0  0  0  0  0  0  0  0  0
    8.8003    2.5848   -0.0000 C   0  0  0  0  0  0  0  0  0  0  0  0
    8.8200    4.9921   -0.0000 C   0  0  0  0  0  0  0  0  0  0  0  0
    7.3993    5.9984   -0.0000 C   0  0  0  0  0  0  0  0  0  0  0  0
    9.6684    3.7885   -0.0000 C   0  0  0  0  0  0  0  0  0  0  0  0
    9.2541    6.3930   -0.0000 O   0  0  0  0  0  0  0  0  0  0  0  0
  1  2  2  0
  2  3  1  0
  2  4  1  0
  3  5  2  0
  4  6  1  0
  4  7  1  1
  5  8  1  0
  5  9  1  0
  7 10  1  0
  8 11  1  6
  9 12  1  0
 10 13  1  6
 11 14  1  0
 11 15  1  0
 14 16  1  0
 15 17  1  0
 16 18  1  0
 16 19  1  0
 18 20  1  0
 18 21  1  1
 19 22  1  0
 20 23  2  0
  6  8  1  0
  8 10  1  0
 12 14  1  0
 17 18  1  0
 20 22  1  0
M  END
>  <MolRegNo>  (1) 
74890

>  <m>  (1) 
=

>  <Value>  (1) 
926

>  <Unit>  (1) 
nM

>  <Type>  (1) 
Ki

>  <pValue>  (1) 
6.03

>  <Ligand Efficiency>  (1) 
0.36

>  <Binding Efficiency>  (1) 
19.19

>  <Surface Efficiency>  (1) 
11.1

>  <Assay Index>  (1) 
50926

>  <Assay Category>  (1) 


>  <Assay Organism>  (1) 
Homo sapiens

>  <Target ID>  (1) 
65

>  <Target Name>  (1) 
Cytochrome P450 19A1

>  <Target Organism>  (1) 
Homo sapiens

>  <Target Description>  (1) 
Target is a single protein chain

>  <Sequence Accession>  (1) 
P11511

>  <Reference>  (1) 
J Med Chem 34 (5), 1748-1750 (1991)

>  <Pubmed ID>  (1) 
2033599

>  <DOI>  (1) 
10.1021/jm00109a033

$$$$
