4wnv_ligand_277
     RDKit          2D

 22 25  0  0  0  0  0  0  0  0999 V2000
    0.0000   -0.0000   -0.0000 O   0  0  0  0  0  0  0  0  0  0  0  0
    1.0616    0.6329   -0.0000 C   0  0  0  0  0  0  0  0  0  0  0  0
    2.3274   -0.1021   -0.0000 C   0  0  0  0  0  0  0  0  0  0  0  0
    1.0412    2.1437   -0.0000 C   0  0  0  0  0  0  0  0  0  0  0  0
    3.5932    0.6941   -0.0000 C   0  0  0  0  0  0  0  0  0  0  0  0
    2.2866    2.8990   -0.0000 C   0  0  0  0  0  0  0  0  0  0  0  0
    3.5728    2.2049   -0.0000 C   0  0  0  0  0  0  0  0  0  0  0  0
    4.8794   -0.0408   -0.0000 C   0  0  0  0  0  0  0  0  0  0  0  0
    4.8386    2.9603   -0.0000 C   0  0  0  0  0  0  0  0  0  0  0  0
    2.2253    1.4495   -0.0000 C   0  0  0  0  0  0  0  0  0  0  0  0
    6.1452    0.7554   -0.0000 C   0  0  0  0  0  0  0  0  0  0  0  0
    6.1043    2.2662   -0.0000 C   0  0  0  0  0  0  0  0  0  0  0  0
    4.7977    4.4915   -0.0000 C   0  0  0  0  0  0  0  0  0  0  0  0
    1.1229    2.0824   -0.0000 C   0  0  0  0  0  0  0  0  0  0  0  0
    7.3701    3.0215   -0.0000 C   0  0  0  0  0  0  0  0  0  0  0  0
    6.0635    5.2673   -0.0000 C   0  0  0  0  0  0  0  0  0  0  0  0
    7.3497    4.5323   -0.0000 C   0  0  0  0  0  0  0  0  0  0  0  0
    9.9425    3.0215   -0.0000 C   0  0  0  0  0  0  0  0  0  0  0  0
    8.6155    5.3285   -0.0000 C   0  0  0  0  0  0  0  0  0  0  0  0
    7.3293    5.7981   -0.0000 C   0  0  0  0  0  0  0  0  0  0  0  0
    9.9221    4.5731   -0.0000 C   0  0  0  0  0  0  0  0  0  0  0  0
    8.5951    6.5943   -0.0000 O   0  0  0  0  0  0  0  0  0  0  0  0
  1  2  2  0
  2  3  1  0
  2  4  1  0
  3  5  2  0
  4  6  2  0
  5  7  1  0
  5  8  1  0
  7  9  1  0
  7 10  1  1
  8 11  1  0
  9 12  1  0
  9 13  1  1
 10 14  1  0
 12 15  1  0
 13 16  1  0
 15 17  1  0
 15 18  1  1
 17 19  1  0
 17 20  1  1
 18 21  1  0
 19 22  2  0
  6  7  1  0
 12 11  1  6
 16 17  1  0
 19 21  1  0
M  END
>  <MolRegNo>  (1) 
2058101

>  <m>  (1) 
=

>  <Value>  (1) 
8.2

>  <Unit>  (1) 
nM

>  <Type>  (1) 
Ki

>  <pValue>  (1) 
8.09

>  <Ligand Efficiency>  (1) 
0.5

>  <Binding Efficiency>  (1) 
27.1

>  <Surface Efficiency>  (1) 
23.69

>  <Assay Index>  (1) 
985355

>  <Assay Category>  (1) 


>  <Assay Organism>  (1) 
Homo sapiens

>  <Target ID>  (1) 
65

>  <Target Name>  (1) 
Cytochrome P450 19A1

>  <Target Organism>  (1) 
Homo sapiens

>  <Target Description>  (1) 
Target is a single protein chain

>  <Sequence Accession>  (1) 
P11511

>  <Reference>  (1) 


>  <Pubmed ID>  (1) 
26469743

>  <DOI>  (1) 
10.1016/j.ejmech.2015.09.038

$$$$
