4wnv_ligand_92
     RDKit          2D

 21 24  0  0  0  0  0  0  0  0999 V2000
    0.0000   -0.0000   -0.0000 O   0  0  0  0  0  0  0  0  0  0  0  0
    1.4720    0.2730   -0.0000 C   0  0  0  0  0  0  0  0  0  0  0  0
    2.4336   -0.8666   -0.0000 C   0  0  0  0  0  0  0  0  0  0  0  0
    1.9706    1.6976   -0.0000 C   0  0  0  0  0  0  0  0  0  0  0  0
    3.9056   -0.5936   -0.0000 C   0  0  0  0  0  0  0  0  0  0  0  0
    3.4426    1.9706   -0.0000 C   0  0  0  0  0  0  0  0  0  0  0  0
    4.4042    0.8310   -0.0000 C   0  0  0  0  0  0  0  0  0  0  0  0
    4.8671   -1.7332   -0.0000 C   0  0  0  0  0  0  0  0  0  0  0  0
    5.8762    1.1040   -0.0000 C   0  0  0  0  0  0  0  0  0  0  0  0
    4.9028    2.2555   -0.0000 C   0  0  0  0  0  0  0  0  0  0  0  0
    6.3392   -1.4601   -0.0000 C   0  0  0  0  0  0  0  0  0  0  0  0
    6.8377   -0.0356   -0.0000 C   0  0  0  0  0  0  0  0  0  0  0  0
    6.3748    2.5285   -0.0000 C   0  0  0  0  0  0  0  0  0  0  0  0
    8.3097    0.2374   -0.0000 C   0  0  0  0  0  0  0  0  0  0  0  0
    7.8468    2.8016   -0.0000 C   0  0  0  0  0  0  0  0  0  0  0  0
    8.8083    1.6619   -0.0000 C   0  0  0  0  0  0  0  0  0  0  0  0
    9.4850   -0.6767   -0.0000 C   0  0  0  0  0  0  0  0  0  0  0  0
   10.3041    1.6263   -0.0000 C   0  0  0  0  0  0  0  0  0  0  0  0
    9.4494    3.0271   -0.0000 C   0  0  0  0  0  0  0  0  0  0  0  0
   10.7196    0.1781   -0.0000 C   0  0  0  0  0  0  0  0  0  0  0  0
   11.2182    2.8253   -0.0000 O   0  0  0  0  0  0  0  0  0  0  0  0
  1  2  2  0
  2  3  1  0
  2  4  1  0
  3  5  2  0
  4  6  2  0
  5  7  1  0
  5  8  1  0
  7  9  1  0
  7 10  1  1
  8 11  1  0
  9 12  1  0
  9 13  1  1
 12 14  1  0
 13 15  1  0
 14 16  1  0
 14 17  1  1
 16 18  1  0
 16 19  1  1
 17 20  1  0
 18 21  2  0
  6  7  1  0
 12 11  1  6
 15 16  1  0
 18 20  1  0
M  END
>  <MolRegNo>  (1) 
617790

>  <m>  (1) 
=

>  <Value>  (1) 
320

>  <Unit>  (1) 
nM

>  <Type>  (1) 
Ki

>  <pValue>  (1) 
6.5

>  <Ligand Efficiency>  (1) 
0.42

>  <Binding Efficiency>  (1) 
22.84

>  <Surface Efficiency>  (1) 
19.02

>  <Assay Index>  (1) 
50795

>  <Assay Category>  (1) 


>  <Assay Organism>  (1) 


>  <Target ID>  (1) 
65

>  <Target Name>  (1) 
Cytochrome P450 19A1

>  <Target Organism>  (1) 
Homo sapiens

>  <Target Description>  (1) 
Target is a single protein chain

>  <Sequence Accession>  (1) 
P11511

>  <Reference>  (1) 
J Med Chem 33 (11), 2933-2942 (1990)

>  <Pubmed ID>  (1) 
2231592

>  <DOI>  (1) 
10.1021/jm00173a001

$$$$
