4wnv_ligand_127
     RDKit          2D

 21 23  0  0  0  0  0  0  0  0999 V2000
    0.0000   -0.0000   -0.0000 O   0  0  0  0  0  0  0  0  0  0  0  0
    1.2834    0.7605   -0.0000 C   0  0  0  0  0  0  0  0  0  0  0  0
    2.5668    0.0238   -0.0000 C   0  0  0  0  0  0  0  0  0  0  0  0
    1.2715    2.2816   -0.0000 C   0  0  0  0  0  0  0  0  0  0  0  0
    3.8502    0.7843   -0.0000 C   0  0  0  0  0  0  0  0  0  0  0  0
    2.5549    3.0421   -0.0000 C   0  0  0  0  0  0  0  0  0  0  0  0
    3.8502    2.3054   -0.0000 C   0  0  0  0  0  0  0  0  0  0  0  0
    5.1336    0.0475   -0.0000 C   0  0  0  0  0  0  0  0  0  0  0  0
    5.1336    3.0659   -0.0000 C   0  0  0  0  0  0  0  0  0  0  0  0
    3.8265    3.8146   -0.0000 C   0  0  0  0  0  0  0  0  0  0  0  0
    6.4289    0.8081   -0.0000 C   0  0  0  0  0  0  0  0  0  0  0  0
    6.4170    2.3173   -0.0000 C   0  0  0  0  0  0  0  0  0  0  0  0
    5.1217    4.5870   -0.0000 C   0  0  0  0  0  0  0  0  0  0  0  0
    7.7004    3.0778   -0.0000 C   0  0  0  0  0  0  0  0  0  0  0  0
    6.4289    5.3475   -0.0000 C   0  0  0  0  0  0  0  0  0  0  0  0
    7.7123    4.5870   -0.0000 C   0  0  0  0  0  0  0  0  0  0  0  0
    9.1146    2.6143   -0.0000 C   0  0  0  0  0  0  0  0  0  0  0  0
    9.1502    5.0504   -0.0000 C   0  0  0  0  0  0  0  0  0  0  0  0
    7.7004    6.1081   -0.0000 C   0  0  0  0  0  0  0  0  0  0  0  0
    9.4711    6.5240   -0.0000 O   0  0  0  0  0  0  0  0  0  0  0  0
   10.2316    4.0404   -0.0000 O   0  0  0  0  0  0  0  0  0  0  0  0
  1  2  2  0
  2  3  1  0
  2  4  1  0
  3  5  2  0
  4  6  2  0
  5  7  1  0
  5  8  1  0
  7  9  1  0
  7 10  1  0
  8 11  1  0
  9 12  1  0
  9 13  1  0
 12 14  1  0
 13 15  1  0
 14 16  1  0
 14 17  1  0
 16 18  1  0
 16 19  1  0
 18 20  2  0
 18 21  1  0
  6  7  1  0
 11 12  1  0
 15 16  1  0
M  END
>  <MolRegNo>  (1) 
264657

>  <m>  (1) 
=

>  <Value>  (1) 
1198000

>  <Unit>  (1) 
nM

>  <Type>  (1) 
Ki

>  <pValue>  (1) 
0

>  <Ligand Efficiency>  (1) 
0

>  <Binding Efficiency>  (1) 
0

>  <Surface Efficiency>  (1) 
0

>  <Assay Index>  (1) 
50803

>  <Assay Category>  (1) 


>  <Assay Organism>  (1) 
Homo sapiens

>  <Target ID>  (1) 
65

>  <Target Name>  (1) 
Cytochrome P450 19A1

>  <Target Organism>  (1) 
Homo sapiens

>  <Target Description>  (1) 
Target is a single protein chain

>  <Sequence Accession>  (1) 
P11511

>  <Reference>  (1) 
J Med Chem 32 (3), 651-658 (1989)

>  <Pubmed ID>  (1) 
2918514

>  <DOI>  (1) 
10.1021/jm00123a026

$$$$
