4wnv_ligand_349
     RDKit          2D

 24 28  0  0  0  0  0  0  0  0999 V2000
    0.0000   -0.0000   -0.0000 O   0  0  0  0  0  0  0  0  0  0  0  0
    0.3651    1.1925   -0.0000 C   0  0  0  0  0  0  0  0  0  0  0  0
    1.8131    1.6793   -0.0000 C   0  0  0  0  0  0  0  0  0  0  0  0
   -0.5598    2.4580   -0.0000 C   0  0  0  0  0  0  0  0  0  0  0  0
    1.8009    3.2368   -0.0000 C   0  0  0  0  0  0  0  0  0  0  0  0
    3.1395    0.9126   -0.0000 C   0  0  0  0  0  0  0  0  0  0  0  0
    1.6793    0.4624   -0.0000 C   0  0  0  0  0  0  0  0  0  0  0  0
    0.3407    3.7236   -0.0000 C   0  0  0  0  0  0  0  0  0  0  0  0
    3.1273    4.0156   -0.0000 C   0  0  0  0  0  0  0  0  0  0  0  0
    4.4658    1.6914   -0.0000 C   0  0  0  0  0  0  0  0  0  0  0  0
    4.4537    3.2490   -0.0000 C   0  0  0  0  0  0  0  0  0  0  0  0
    3.1151    5.5732   -0.0000 C   0  0  0  0  0  0  0  0  0  0  0  0
    5.7800    4.0278   -0.0000 C   0  0  0  0  0  0  0  0  0  0  0  0
    4.4415    6.3520   -0.0000 C   0  0  0  0  0  0  0  0  0  0  0  0
    5.7679    5.5853   -0.0000 C   0  0  0  0  0  0  0  0  0  0  0  0
    5.7679    5.5853   -0.0000 C   0  0  0  0  0  0  0  0  0  0  0  0
    7.1064    3.2612   -0.0000 C   0  0  0  0  0  0  0  0  0  0  0  0
    7.0942    6.3641   -0.0000 C   0  0  0  0  0  0  0  0  0  0  0  0
    7.0942    6.3641   -0.0000 O   0  0  0  0  0  0  0  0  0  0  0  0
    4.7701    6.7900   -0.0000 C   0  0  0  0  0  0  0  0  0  0  0  0
    8.4328    4.0399   -0.0000 C   0  0  0  0  0  0  0  0  0  0  0  0
    8.4206    5.5975   -0.0000 C   0  0  0  0  0  0  0  0  0  0  0  0
    5.1838    7.9582   -0.0000 C   0  0  0  0  0  0  0  0  0  0  0  0
    9.4793    6.2303   -0.0000 O   0  0  0  0  0  0  0  0  0  0  0  0
  1  2  2  0
  2  3  1  0
  2  4  1  0
  3  5  1  0
  3  6  1  0
  3  7  1  6
  4  8  1  0
  5  9  1  0
  6 10  1  0
  9 11  1  0
  9 12  1  1
 11 13  1  0
 12 14  1  0
 13 15  1  0
 13 16  1  0
 13 17  1  1
 15 18  1  0
 16 19  1  0
 16 20  1  0
 17 21  1  0
 22 18  1  0
 20 23  2  0
 22 24  1  6
  5  8  1  6
 11 10  1  6
 14 15  2  0
 19 22  1  0
 21 22  1  0
M  END
>  <MolRegNo>  (1) 
2058224

>  <m>  (1) 
=

>  <Value>  (1) 
10000

>  <Unit>  (1) 
nM

>  <Type>  (1) 
Ki

>  <pValue>  (1) 
5

>  <Ligand Efficiency>  (1) 
0.28

>  <Binding Efficiency>  (1) 
15.22

>  <Surface Efficiency>  (1) 
10.75

>  <Assay Index>  (1) 
985549

>  <Assay Category>  (1) 


>  <Assay Organism>  (1) 
Homo sapiens

>  <Target ID>  (1) 
65

>  <Target Name>  (1) 
Cytochrome P450 19A1

>  <Target Organism>  (1) 
Homo sapiens

>  <Target Description>  (1) 
Target is a single protein chain

>  <Sequence Accession>  (1) 
P11511

>  <Reference>  (1) 


>  <Pubmed ID>  (1) 
26469743

>  <DOI>  (1) 
10.1016/j.ejmech.2015.09.038

$$$$
