4wnv_ligand_31
     RDKit          2D

 42 45  0  0  0  0  0  0  0  0999 V2000
    0.0000   -0.0000   -0.0000 F   0  0  0  0  0  0  0  0  0  0  0  0
    1.3006   -0.7517   -0.0000 C   0  0  0  0  0  0  0  0  0  0  0  0
    2.0403    0.5727   -0.0000 F   0  0  0  0  0  0  0  0  0  0  0  0
    0.5250   -2.0523   -0.0000 F   0  0  0  0  0  0  0  0  0  0  0  0
    2.6011   -1.4915   -0.0000 C   0  0  0  0  0  0  0  0  0  0  0  0
    2.5892   -2.9949   -0.0000 C   0  0  0  0  0  0  0  0  0  0  0  0
    3.9017   -0.7278   -0.0000 C   0  0  0  0  0  0  0  0  0  0  0  0
    3.8779   -3.7347   -0.0000 C   0  0  0  0  0  0  0  0  0  0  0  0
    5.1904   -1.4676   -0.0000 C   0  0  0  0  0  0  0  0  0  0  0  0
    5.1784   -2.9710   -0.0000 C   0  0  0  0  0  0  0  0  0  0  0  0
    6.4671   -3.7108   -0.0000 C   0  0  0  0  0  0  0  0  0  0  0  0
    6.4551   -5.2023   -0.0000 N   0  0  0  0  0  0  0  0  0  0  0  0
    7.7557   -2.9472   -0.0000 C   0  0  0  0  0  0  0  0  0  0  0  0
    7.7438   -5.9421   -0.0000 C   0  0  0  0  0  0  0  0  0  0  0  0
    5.1426   -5.9421   -0.0000 C   0  0  0  0  0  0  0  0  0  0  0  0
    7.7438   -1.4199   -0.0000 O   0  0  0  0  0  0  0  0  0  0  0  0
    9.0444   -3.6869   -0.0000 N   0  0  0  0  0  0  0  0  0  0  0  0
    7.7319   -7.4336   -0.0000 C   0  0  0  0  0  0  0  0  0  0  0  0
    5.1307   -7.4336   -0.0000 C   0  0  0  0  0  0  0  0  0  0  0  0
   10.3330   -2.9233   -0.0000 C   0  0  0  0  0  0  0  0  0  0  0  0
    6.4193   -8.1733   -0.0000 N   0  0  0  0  0  0  0  0  0  0  0  0
   10.3211   -1.3960   -0.0000 C   0  0  0  0  0  0  0  0  0  0  0  0
    6.4074   -9.6648   -0.0000 C   0  0  0  0  0  0  0  0  0  0  0  0
   11.6216   -0.6324   -0.0000 C   0  0  0  0  0  0  0  0  0  0  0  0
    9.0086   -0.6324   -0.0000 C   0  0  0  0  0  0  0  0  0  0  0  0
    7.6961  -10.4046   -0.0000 C   0  0  0  0  0  0  0  0  0  0  0  0
   11.6097    0.8830   -0.0000 C   0  0  0  0  0  0  0  0  0  0  0  0
    8.9966    0.8830   -0.0000 C   0  0  0  0  0  0  0  0  0  0  0  0
    8.9847   -9.6410   -0.0000 O   0  0  0  0  0  0  0  0  0  0  0  0
    7.6841  -11.9080   -0.0000 C   0  0  0  0  0  0  0  0  0  0  0  0
   10.2853    1.6466   -0.0000 C   0  0  0  0  0  0  0  0  0  0  0  0
    8.9728  -12.6359   -0.0000 O   0  0  0  0  0  0  0  0  0  0  0  0
   10.2733    3.1619   -0.0000 O   0  0  0  0  0  0  0  0  0  0  0  0
    8.9608  -14.1393   -0.0000 C   0  0  0  0  0  0  0  0  0  0  0  0
   11.5620    3.9137   -0.0000 C   0  0  0  0  0  0  0  0  0  0  0  0
    7.6483  -14.8790   -0.0000 C   0  0  0  0  0  0  0  0  0  0  0  0
   10.2495  -14.8790   -0.0000 C   0  0  0  0  0  0  0  0  0  0  0  0
    7.6364  -16.3705   -0.0000 C   0  0  0  0  0  0  0  0  0  0  0  0
   10.2375  -16.3705   -0.0000 C   0  0  0  0  0  0  0  0  0  0  0  0
    8.9250  -17.1103   -0.0000 C   0  0  0  0  0  0  0  0  0  0  0  0
    8.9250  -18.6018   -0.0000 O   0  0  0  0  0  0  0  0  0  0  0  0
   10.2137  -19.3296   -0.0000 C   0  0  0  0  0  0  0  0  0  0  0  0
  1  2  1  0
  2  3  1  0
  2  4  1  0
  2  5  1  0
  5  6  2  0
  5  7  1  0
  6  8  1  0
  7  9  2  0
  8 10  2  0
 10 11  1  0
 11 12  1  0
 11 13  1  0
 12 14  1  0
 12 15  1  0
 13 16  2  0
 13 17  1  0
 14 18  1  0
 15 19  1  0
 17 20  1  0
 18 21  1  0
 20 22  1  0
 21 23  1  0
 22 24  2  0
 22 25  1  0
 23 26  1  0
 24 27  1  0
 25 28  2  0
 26 29  1  0
 26 30  1  0
 27 31  2  0
 30 32  1  0
 31 33  1  0
 32 34  1  0
 33 35  1  0
 34 36  2  0
 34 37  1  0
 36 38  1  0
 37 39  2  0
 38 40  2  0
 40 41  1  0
 41 42  1  0
  9 10  1  0
 19 21  1  0
 28 31  1  0
 39 40  1  0
M  END
>  <MolRegNo>  (1) 
96974

>  <m>  (1) 
=

>  <Value>  (1) 
4000

>  <Unit>  (1) 
nM

>  <Type>  (1) 
Ki

>  <pValue>  (1) 
5.4

>  <Ligand Efficiency>  (1) 
0

>  <Binding Efficiency>  (1) 
0

>  <Surface Efficiency>  (1) 
0

>  <Assay Index>  (1) 
51650

>  <Assay Category>  (1) 


>  <Assay Organism>  (1) 


>  <Target ID>  (1) 
11365

>  <Target Name>  (1) 
Cytochrome P450 2D6

>  <Target Organism>  (1) 
Homo sapiens

>  <Target Description>  (1) 
Target is a single protein chain

>  <Sequence Accession>  (1) 
P10635

>  <Reference>  (1) 
Bioorg Med Chem Lett 14 (9), 2025-2030 (2004)

>  <Pubmed ID>  (1) 
15080972

>  <DOI>  (1) 
10.1016/j.bmcl.2004.02.078

$$$$
