4wnv_ligand_134
     RDKit          2D

 11 12  0  0  0  0  0  0  0  0999 V2000
    0.0000   -0.0000   -0.0000 N   0  0  0  0  0  0  0  0  0  0  0  0
    1.2919    0.7586   -0.0000 C   0  0  0  0  0  0  0  0  0  0  0  0
   -1.3038    0.7586   -0.0000 C   0  0  0  0  0  0  0  0  0  0  0  0
    1.2801    2.2757   -0.0000 C   0  0  0  0  0  0  0  0  0  0  0  0
   -1.3156    2.2757   -0.0000 C   0  0  0  0  0  0  0  0  0  0  0  0
    2.5246    3.1053   -0.0000 C   0  0  0  0  0  0  0  0  0  0  0  0
   -0.0237    3.0342   -0.0000 C   0  0  0  0  0  0  0  0  0  0  0  0
    3.9113    2.5720   -0.0000 N   0  0  0  0  0  0  0  0  0  0  0  0
    2.5957    4.5987   -0.0000 C   0  0  0  0  0  0  0  0  0  0  0  0
    4.8358    3.7453   -0.0000 N   0  0  0  0  0  0  0  0  0  0  0  0
    4.0298    5.0017   -0.0000 C   0  0  0  0  0  0  0  0  0  0  0  0
  1  2  2  0
  1  3  1  0
  2  4  1  0
  3  5  2  0
  4  6  1  0
  4  7  2  0
  6  8  2  0
  6  9  1  0
  8 10  1  0
  9 11  2  0
  5  7  1  0
 10 11  1  0
M  END
>  <MolRegNo>  (1) 
361895

>  <m>  (1) 
=

>  <Value>  (1) 
165000

>  <Unit>  (1) 
nM

>  <Type>  (1) 
Ki

>  <pValue>  (1) 
0

>  <Ligand Efficiency>  (1) 
0

>  <Binding Efficiency>  (1) 
0

>  <Surface Efficiency>  (1) 
0

>  <Assay Index>  (1) 
269558

>  <Assay Category>  (1) 


>  <Assay Organism>  (1) 
Homo sapiens

>  <Target ID>  (1) 
11365

>  <Target Name>  (1) 
Cytochrome P450 2D6

>  <Target Organism>  (1) 
Homo sapiens

>  <Target Description>  (1) 
Target is a single protein chain

>  <Sequence Accession>  (1) 
P10635

>  <Reference>  (1) 
J Med Chem 49 (24), 6987-7001 (2006)

>  <Pubmed ID>  (1) 
17125252

>  <DOI>  (1) 
10.1021/jm060519r

$$$$
