4wnv_ligand_223
     RDKit          2D

 29 32  0  0  0  0  0  0  0  0999 V2000
    0.0000   -0.0000   -0.0000 O   0  0  0  0  0  0  0  0  0  0  0  0
    1.0627    0.6335   -0.0000 C   0  0  0  0  0  0  0  0  0  0  0  0
    2.3297   -0.1022   -0.0000 C   0  0  0  0  0  0  0  0  0  0  0  0
    1.0422    2.1458   -0.0000 C   0  0  0  0  0  0  0  0  0  0  0  0
    3.5967    0.6948   -0.0000 C   0  0  0  0  0  0  0  0  0  0  0  0
    2.2888    2.9019   -0.0000 C   0  0  0  0  0  0  0  0  0  0  0  0
    3.5763    2.2071   -0.0000 C   0  0  0  0  0  0  0  0  0  0  0  0
    4.8842   -0.0409   -0.0000 C   0  0  0  0  0  0  0  0  0  0  0  0
    4.8433    2.9632   -0.0000 C   0  0  0  0  0  0  0  0  0  0  0  0
    3.5354    3.4741   -0.0000 C   0  0  0  0  0  0  0  0  0  0  0  0
    6.1512    0.7561   -0.0000 C   0  0  0  0  0  0  0  0  0  0  0  0
    4.8842   -1.5736   -0.0000 C   0  0  0  0  0  0  0  0  0  0  0  0
    6.1103    2.2684   -0.0000 C   0  0  0  0  0  0  0  0  0  0  0  0
    4.8024    4.4959   -0.0000 C   0  0  0  0  0  0  0  0  0  0  0  0
    3.5354   -2.3297   -0.0000 C   0  0  0  0  0  0  0  0  0  0  0  0
    7.3774    3.0245   -0.0000 C   0  0  0  0  0  0  0  0  0  0  0  0
    6.0695    5.2725   -0.0000 C   0  0  0  0  0  0  0  0  0  0  0  0
    3.5354   -3.8624   -0.0000 C   0  0  0  0  0  0  0  0  0  0  0  0
    7.3569    4.5368   -0.0000 C   0  0  0  0  0  0  0  0  0  0  0  0
    9.9523    3.0245   -0.0000 C   0  0  0  0  0  0  0  0  0  0  0  0
    2.1866   -4.6185   -0.0000 C   0  0  0  0  0  0  0  0  0  0  0  0
    8.6240    5.3338   -0.0000 C   0  0  0  0  0  0  0  0  0  0  0  0
    7.3365    5.8038   -0.0000 C   0  0  0  0  0  0  0  0  0  0  0  0
    9.9319    4.5776   -0.0000 C   0  0  0  0  0  0  0  0  0  0  0  0
    2.1866   -6.1512   -0.0000 C   0  0  0  0  0  0  0  0  0  0  0  0
    8.6035    6.6008   -0.0000 O   0  0  0  0  0  0  0  0  0  0  0  0
    0.8379   -6.9073   -0.0000 C   0  0  0  0  0  0  0  0  0  0  0  0
    0.8379   -8.4400   -0.0000 C   0  0  0  0  0  0  0  0  0  0  0  0
   -0.2452   -9.0531   -0.0000 C   0  0  0  0  0  0  0  0  0  0  0  0
  1  2  2  0
  2  3  1  0
  2  4  1  0
  3  5  2  0
  4  6  1  0
  5  7  1  0
  5  8  1  0
  7  9  1  0
  7 10  1  6
  8 11  1  0
  8 12  1  1
  9 13  1  0
  9 14  1  6
 12 15  1  0
 13 16  1  0
 14 17  1  0
 15 18  1  0
 16 19  1  0
 16 20  1  6
 18 21  1  0
 19 22  1  0
 19 23  1  6
 20 24  1  0
 21 25  1  0
 22 26  2  0
 25 27  1  0
 27 28  1  0
 28 29  1  0
  6  7  1  0
 13 11  1  1
 17 19  1  0
 22 24  1  0
M  END
>  <MolRegNo>  (1) 
2057843

>  <m>  (1) 
=

>  <Value>  (1) 
9.3

>  <Unit>  (1) 
nM

>  <Type>  (1) 
Ki

>  <pValue>  (1) 
8.03

>  <Ligand Efficiency>  (1) 
0.38

>  <Binding Efficiency>  (1) 
20.15

>  <Surface Efficiency>  (1) 
23.53

>  <Assay Index>  (1) 
985353

>  <Assay Category>  (1) 


>  <Assay Organism>  (1) 
Homo sapiens

>  <Target ID>  (1) 
65

>  <Target Name>  (1) 
Cytochrome P450 19A1

>  <Target Organism>  (1) 
Homo sapiens

>  <Target Description>  (1) 
Target is a single protein chain

>  <Sequence Accession>  (1) 
P11511

>  <Reference>  (1) 


>  <Pubmed ID>  (1) 
26469743

>  <DOI>  (1) 
10.1016/j.ejmech.2015.09.038

$$$$
