4wnv_ligand_30
     RDKit          2D

 42 45  0  0  0  0  0  0  0  0999 V2000
    0.0000   -0.0000   -0.0000 F   0  0  0  0  0  0  0  0  0  0  0  0
    1.2991   -0.7508   -0.0000 C   0  0  0  0  0  0  0  0  0  0  0  0
    2.0380    0.5721   -0.0000 F   0  0  0  0  0  0  0  0  0  0  0  0
    0.5244   -2.0499   -0.0000 F   0  0  0  0  0  0  0  0  0  0  0  0
    2.5982   -1.4898   -0.0000 C   0  0  0  0  0  0  0  0  0  0  0  0
    2.5862   -2.9915   -0.0000 C   0  0  0  0  0  0  0  0  0  0  0  0
    3.8972   -0.7270   -0.0000 C   0  0  0  0  0  0  0  0  0  0  0  0
    3.8734   -3.7304   -0.0000 C   0  0  0  0  0  0  0  0  0  0  0  0
    5.1844   -1.4659   -0.0000 C   0  0  0  0  0  0  0  0  0  0  0  0
    5.1725   -2.9676   -0.0000 C   0  0  0  0  0  0  0  0  0  0  0  0
    6.4596   -3.7066   -0.0000 C   0  0  0  0  0  0  0  0  0  0  0  0
    6.4477   -5.1963   -0.0000 N   0  0  0  0  0  0  0  0  0  0  0  0
    7.7468   -2.9438   -0.0000 C   0  0  0  0  0  0  0  0  0  0  0  0
    7.7349   -5.9352   -0.0000 C   0  0  0  0  0  0  0  0  0  0  0  0
    5.1367   -5.9352   -0.0000 C   0  0  0  0  0  0  0  0  0  0  0  0
    7.7349   -1.4183   -0.0000 O   0  0  0  0  0  0  0  0  0  0  0  0
    9.0340   -3.6827   -0.0000 N   0  0  0  0  0  0  0  0  0  0  0  0
    7.7230   -7.4250   -0.0000 C   0  0  0  0  0  0  0  0  0  0  0  0
    5.1248   -7.4250   -0.0000 C   0  0  0  0  0  0  0  0  0  0  0  0
   10.3211   -2.9200   -0.0000 C   0  0  0  0  0  0  0  0  0  0  0  0
    6.4120   -8.1639   -0.0000 N   0  0  0  0  0  0  0  0  0  0  0  0
   10.3092   -1.3944   -0.0000 C   0  0  0  0  0  0  0  0  0  0  0  0
    6.4001   -9.6537   -0.0000 C   0  0  0  0  0  0  0  0  0  0  0  0
   11.6083   -0.6317   -0.0000 C   0  0  0  0  0  0  0  0  0  0  0  0
    8.9982   -0.6317   -0.0000 C   0  0  0  0  0  0  0  0  0  0  0  0
    7.6872  -10.3926   -0.0000 C   0  0  0  0  0  0  0  0  0  0  0  0
   11.5964    0.8819   -0.0000 C   0  0  0  0  0  0  0  0  0  0  0  0
    8.9863    0.8819   -0.0000 C   0  0  0  0  0  0  0  0  0  0  0  0
    8.9744   -9.6299   -0.0000 O   0  0  0  0  0  0  0  0  0  0  0  0
    7.6753  -11.8943   -0.0000 C   0  0  0  0  0  0  0  0  0  0  0  0
   10.2735    1.6447   -0.0000 C   0  0  0  0  0  0  0  0  0  0  0  0
    8.9625  -12.6213   -0.0000 O   0  0  0  0  0  0  0  0  0  0  0  0
   10.2615    3.1583   -0.0000 O   0  0  0  0  0  0  0  0  0  0  0  0
    8.9505  -14.1230   -0.0000 C   0  0  0  0  0  0  0  0  0  0  0  0
   11.5487    3.9092   -0.0000 C   0  0  0  0  0  0  0  0  0  0  0  0
    7.6395  -14.8620   -0.0000 C   0  0  0  0  0  0  0  0  0  0  0  0
   10.2377  -14.8620   -0.0000 C   0  0  0  0  0  0  0  0  0  0  0  0
    7.6276  -16.3517   -0.0000 C   0  0  0  0  0  0  0  0  0  0  0  0
    6.3166  -14.0873   -0.0000 C   0  0  0  0  0  0  0  0  0  0  0  0
   10.2258  -16.3517   -0.0000 C   0  0  0  0  0  0  0  0  0  0  0  0
   11.5368  -14.0873   -0.0000 C   0  0  0  0  0  0  0  0  0  0  0  0
    8.9148  -17.0907   -0.0000 C   0  0  0  0  0  0  0  0  0  0  0  0
  1  2  1  0
  2  3  1  0
  2  4  1  0
  2  5  1  0
  5  6  2  0
  5  7  1  0
  6  8  1  0
  7  9  2  0
  8 10  2  0
 10 11  1  0
 11 12  1  0
 11 13  1  0
 12 14  1  0
 12 15  1  0
 13 16  2  0
 13 17  1  0
 14 18  1  0
 15 19  1  0
 17 20  1  0
 18 21  1  0
 20 22  1  0
 21 23  1  0
 22 24  2  0
 22 25  1  0
 23 26  1  0
 24 27  1  0
 25 28  2  0
 26 29  1  0
 26 30  1  0
 27 31  2  0
 30 32  1  0
 31 33  1  0
 32 34  1  0
 33 35  1  0
 34 36  2  0
 34 37  1  0
 36 38  1  0
 36 39  1  0
 37 40  2  0
 37 41  1  0
 38 42  2  0
  9 10  1  0
 19 21  1  0
 28 31  1  0
 40 42  1  0
M  END
>  <MolRegNo>  (1) 
97847

>  <m>  (1) 
=

>  <Value>  (1) 
2000

>  <Unit>  (1) 
nM

>  <Type>  (1) 
Ki

>  <pValue>  (1) 
5.7

>  <Ligand Efficiency>  (1) 
0

>  <Binding Efficiency>  (1) 
0

>  <Surface Efficiency>  (1) 
0

>  <Assay Index>  (1) 
51650

>  <Assay Category>  (1) 


>  <Assay Organism>  (1) 


>  <Target ID>  (1) 
11365

>  <Target Name>  (1) 
Cytochrome P450 2D6

>  <Target Organism>  (1) 
Homo sapiens

>  <Target Description>  (1) 
Target is a single protein chain

>  <Sequence Accession>  (1) 
P10635

>  <Reference>  (1) 
Bioorg Med Chem Lett 14 (9), 2025-2030 (2004)

>  <Pubmed ID>  (1) 
15080972

>  <DOI>  (1) 
10.1016/j.bmcl.2004.02.078

$$$$
