4wnv_ligand_339
     RDKit          2D

 32 37  0  0  0  0  0  0  0  0999 V2000
    0.0000   -0.0000   -0.0000 S   0  0  0  0  0  0  0  0  0  0  0  0
    0.0000   -1.5112   -0.0000 C   0  0  0  0  0  0  0  0  0  0  0  0
   -1.3500    0.7657   -0.0000 C   0  0  0  0  0  0  0  0  0  0  0  0
    1.3097   -2.2366   -0.0000 C   0  0  0  0  0  0  0  0  0  0  0  0
   -1.3500   -2.2769   -0.0000 C   0  0  0  0  0  0  0  0  0  0  0  0
   -1.3903    2.2568   -0.0000 C   0  0  0  0  0  0  0  0  0  0  0  0
   -2.6396    0.0201   -0.0000 C   0  0  0  0  0  0  0  0  0  0  0  0
    1.3097   -3.7277   -0.0000 C   0  0  0  0  0  0  0  0  0  0  0  0
    2.5993   -1.4306   -0.0000 C   0  0  0  0  0  0  0  0  0  0  0  0
   -1.3500   -3.7680   -0.0000 C   0  0  0  0  0  0  0  0  0  0  0  0
   -2.6799    2.9822   -0.0000 C   0  0  0  0  0  0  0  0  0  0  0  0
   -0.1410    3.0023   -0.0000 C   0  0  0  0  0  0  0  0  0  0  0  0
   -3.9494    0.7858   -0.0000 C   0  0  0  0  0  0  0  0  0  0  0  0
   -0.0201   -4.4934   -0.0000 C   0  0  0  0  0  0  0  0  0  0  0  0
    2.6195   -4.4531   -0.0000 C   0  0  0  0  0  0  0  0  0  0  0  0
    3.9091   -2.1560   -0.0000 C   0  0  0  0  0  0  0  0  0  0  0  0
   -3.9695    2.2769   -0.0000 C   0  0  0  0  0  0  0  0  0  0  0  0
   -2.7202    4.4934   -0.0000 C   0  0  0  0  0  0  0  0  0  0  0  0
   -0.1612    4.4934   -0.0000 C   0  0  0  0  0  0  0  0  0  0  0  0
    2.3978    3.0023   -0.0000 C   0  0  0  0  0  0  0  0  0  0  0  0
   -5.2389    0.0403   -0.0000 C   0  0  0  0  0  0  0  0  0  0  0  0
    3.9091   -3.6471   -0.0000 C   0  0  0  0  0  0  0  0  0  0  0  0
   -5.2792    3.0023   -0.0000 C   0  0  0  0  0  0  0  0  0  0  0  0
   -4.0098    3.5262   -0.0000 C   0  0  0  0  0  0  0  0  0  0  0  0
   -1.4709    5.2591   -0.0000 C   0  0  0  0  0  0  0  0  0  0  0  0
    1.0881    5.2792   -0.0000 C   0  0  0  0  0  0  0  0  0  0  0  0
   -0.1813    5.7427   -0.0000 C   0  0  0  0  0  0  0  0  0  0  0  0
    2.3777    4.5337   -0.0000 C   0  0  0  0  0  0  0  0  0  0  0  0
   -6.5285    0.8060   -0.0000 C   0  0  0  0  0  0  0  0  0  0  0  0
   -6.5487    2.2971   -0.0000 C   0  0  0  0  0  0  0  0  0  0  0  0
    1.0679    6.5285   -0.0000 O   0  0  0  0  0  0  0  0  0  0  0  0
   -7.6166    0.2216   -0.0000 O   0  0  0  0  0  0  0  0  0  0  0  0
  1  2  1  0
  3  1  1  6
  2  4  1  0
  2  5  2  0
  6  3  1  6
  3  7  1  0
  4  8  2  0
  4  9  1  0
  5 10  1  0
  6 11  1  0
  6 12  1  0
  7 13  1  0
  8 14  1  0
  8 15  1  0
  9 16  2  0
 11 17  1  0
 11 18  1  1
 12 19  1  0
 12 20  1  1
 13 21  2  0
 15 22  2  0
 17 23  1  0
 17 24  1  1
 18 25  1  0
 19 26  1  0
 19 27  1  1
 20 28  1  0
 21 29  1  0
 23 30  2  0
 26 31  2  0
 29 32  2  0
 10 14  2  0
 13 17  1  0
 16 22  1  0
 19 25  1  0
 26 28  1  0
 29 30  1  0
M  END
>  <MolRegNo>  (1) 
2058073

>  <m>  (1) 
=

>  <Value>  (1) 
12

>  <Unit>  (1) 
nM

>  <Type>  (1) 
Ki

>  <pValue>  (1) 
7.92

>  <Ligand Efficiency>  (1) 
0.34

>  <Binding Efficiency>  (1) 
17.9

>  <Surface Efficiency>  (1) 
23.2

>  <Assay Index>  (1) 
985542

>  <Assay Category>  (1) 


>  <Assay Organism>  (1) 
Homo sapiens

>  <Target ID>  (1) 
65

>  <Target Name>  (1) 
Cytochrome P450 19A1

>  <Target Organism>  (1) 
Homo sapiens

>  <Target Description>  (1) 
Target is a single protein chain

>  <Sequence Accession>  (1) 
P11511

>  <Reference>  (1) 


>  <Pubmed ID>  (1) 
26469743

>  <DOI>  (1) 
10.1016/j.ejmech.2015.09.038

$$$$
