4wnv_ligand_118
     RDKit          2D

 31 35  0  0  0  0  0  0  0  0999 V2000
    0.0000   -0.0000   -0.0000 O   0  0  0  0  0  0  0  0  0  0  0  0
   -1.2835    0.7504   -0.0000 N   0  0  0  0  0  0  0  0  0  0  0  0
   -2.5670    0.0395   -0.0000 O   0  0  0  0  0  0  0  0  0  0  0  0
   -1.3032    2.2313   -0.0000 C   0  0  0  0  0  0  0  0  0  0  0  0
   -0.0592    2.9817   -0.0000 C   0  0  0  0  0  0  0  0  0  0  0  0
   -2.5867    2.9817   -0.0000 C   0  0  0  0  0  0  0  0  0  0  0  0
   -0.0790    4.4429   -0.0000 C   0  0  0  0  0  0  0  0  0  0  0  0
   -2.6065    4.4626   -0.0000 C   0  0  0  0  0  0  0  0  0  0  0  0
   -1.3427    5.1932   -0.0000 C   0  0  0  0  0  0  0  0  0  0  0  0
   -1.3625    6.6742   -0.0000 C   0  0  0  0  0  0  0  0  0  0  0  0
   -2.6460    7.4246   -0.0000 C   0  0  0  0  0  0  0  0  0  0  0  0
   -3.9295    6.7334   -0.0000 C   0  0  0  0  0  0  0  0  0  0  0  0
   -2.6657    8.9055   -0.0000 C   0  0  0  0  0  0  0  0  0  0  0  0
   -5.2130    7.5035   -0.0000 C   0  0  0  0  0  0  0  0  0  0  0  0
   -3.9492    9.6559   -0.0000 C   0  0  0  0  0  0  0  0  0  0  0  0
   -1.4217    9.6361   -0.0000 C   0  0  0  0  0  0  0  0  0  0  0  0
   -6.4965    6.7927   -0.0000 C   0  0  0  0  0  0  0  0  0  0  0  0
   -5.2327    8.9648   -0.0000 C   0  0  0  0  0  0  0  0  0  0  0  0
   -3.9492   11.1368   -0.0000 C   0  0  0  0  0  0  0  0  0  0  0  0
   -1.4217   11.0973   -0.0000 C   0  0  0  0  0  0  0  0  0  0  0  0
    1.0663    9.6164   -0.0000 C   0  0  0  0  0  0  0  0  0  0  0  0
   -7.7602    7.5430   -0.0000 C   0  0  0  0  0  0  0  0  0  0  0  0
   -6.5162    9.7349   -0.0000 C   0  0  0  0  0  0  0  0  0  0  0  0
   -5.2525   10.4457   -0.0000 C   0  0  0  0  0  0  0  0  0  0  0  0
   -2.6855   11.8674   -0.0000 C   0  0  0  0  0  0  0  0  0  0  0  0
   -0.1777   11.8280   -0.0000 C   0  0  0  0  0  0  0  0  0  0  0  0
   -1.4415   12.5783   -0.0000 C   0  0  0  0  0  0  0  0  0  0  0  0
    1.0663   11.0776   -0.0000 C   0  0  0  0  0  0  0  0  0  0  0  0
   -9.0437    6.8124   -0.0000 O   0  0  0  0  0  0  0  0  0  0  0  0
   -7.7800    9.0043   -0.0000 C   0  0  0  0  0  0  0  0  0  0  0  0
   -0.1777   13.3089   -0.0000 O   0  0  0  0  0  0  0  0  0  0  0  0
  1  2  2  0
  2  3  1  0
  2  4  1  0
  4  5  2  0
  4  6  1  0
  5  7  1  0
  6  8  2  0
  7  9  2  0
  9 10  1  0
 10 11  1  0
 11 12  2  0
 11 13  1  0
 12 14  1  0
 13 15  1  0
 13 16  1  0
 14 17  2  0
 14 18  1  0
 15 19  1  0
 16 20  1  0
 16 21  1  0
 17 22  1  0
 18 23  1  0
 18 24  1  0
 19 25  1  0
 20 26  1  0
 20 27  1  0
 21 28  1  0
 22 29  2  0
 22 30  1  0
 26 31  2  0
  8  9  1  0
 15 18  1  0
 20 25  1  0
 23 30  1  0
 26 28  1  0
M  CHG  2   2   1   3  -1
M  END
>  <MolRegNo>  (1) 
5437

>  <m>  (1) 
=

>  <Value>  (1) 
94

>  <Unit>  (1) 
nM

>  <Type>  (1) 
Ki

>  <pValue>  (1) 
7.03

>  <Ligand Efficiency>  (1) 
0.31

>  <Binding Efficiency>  (1) 
16.75

>  <Surface Efficiency>  (1) 
9.09

>  <Assay Index>  (1) 
50932

>  <Assay Category>  (1) 


>  <Assay Organism>  (1) 
Homo sapiens

>  <Target ID>  (1) 
65

>  <Target Name>  (1) 
Cytochrome P450 19A1

>  <Target Organism>  (1) 
Homo sapiens

>  <Target Description>  (1) 
Target is a single protein chain

>  <Sequence Accession>  (1) 
P11511

>  <Reference>  (1) 
J Med Chem 33 (1), 101-105 (1990)

>  <Pubmed ID>  (1) 
2296006

>  <DOI>  (1) 
10.1021/jm00163a017

$$$$
