4wnv_ligand_293
     RDKit          2D

 32 36  0  0  0  0  0  0  0  0999 V2000
    0.0000   -0.0000   -0.0000 O   0  0  0  0  0  0  0  0  0  0  0  0
   -1.0733   -0.6075   -0.0000 N   0  0  0  0  0  0  0  0  0  0  0  0
   -1.0733   -1.8023   -0.0000 O   0  0  0  0  0  0  0  0  0  0  0  0
   -2.4301    0.1620   -0.0000 C   0  0  0  0  0  0  0  0  0  0  0  0
   -3.7667   -0.6075   -0.0000 C   0  0  0  0  0  0  0  0  0  0  0  0
   -2.4706    1.7213   -0.0000 C   0  0  0  0  0  0  0  0  0  0  0  0
   -5.1235    0.1620   -0.0000 C   0  0  0  0  0  0  0  0  0  0  0  0
   -3.8274    2.4909   -0.0000 C   0  0  0  0  0  0  0  0  0  0  0  0
   -5.1640    1.7213   -0.0000 C   0  0  0  0  0  0  0  0  0  0  0  0
   -6.5208    2.4909   -0.0000 C   0  0  0  0  0  0  0  0  0  0  0  0
   -6.5613    4.0502   -0.0000 C   0  0  0  0  0  0  0  0  0  0  0  0
   -7.9181    4.8197   -0.0000 C   0  0  0  0  0  0  0  0  0  0  0  0
   -7.9586    6.3183   -0.0000 C   0  0  0  0  0  0  0  0  0  0  0  0
   -9.2141    4.0704   -0.0000 C   0  0  0  0  0  0  0  0  0  0  0  0
   -9.2546    7.0473   -0.0000 C   0  0  0  0  0  0  0  0  0  0  0  0
   -6.7030    7.0675   -0.0000 C   0  0  0  0  0  0  0  0  0  0  0  0
  -10.5304    4.8400   -0.0000 C   0  0  0  0  0  0  0  0  0  0  0  0
  -10.5507    6.3385   -0.0000 C   0  0  0  0  0  0  0  0  0  0  0  0
   -9.2951    8.5661   -0.0000 C   0  0  0  0  0  0  0  0  0  0  0  0
   -6.7233    8.5661   -0.0000 C   0  0  0  0  0  0  0  0  0  0  0  0
   -4.1514    7.0675   -0.0000 C   0  0  0  0  0  0  0  0  0  0  0  0
  -11.8265    4.0907   -0.0000 C   0  0  0  0  0  0  0  0  0  0  0  0
  -11.8670    7.0675   -0.0000 C   0  0  0  0  0  0  0  0  0  0  0  0
  -10.5912    7.5941   -0.0000 C   0  0  0  0  0  0  0  0  0  0  0  0
   -8.0396    9.3356   -0.0000 C   0  0  0  0  0  0  0  0  0  0  0  0
   -5.4677    9.3559   -0.0000 C   0  0  0  0  0  0  0  0  0  0  0  0
   -6.7435    9.8217   -0.0000 C   0  0  0  0  0  0  0  0  0  0  0  0
   -4.1717    8.6066   -0.0000 C   0  0  0  0  0  0  0  0  0  0  0  0
  -13.1225    4.8602   -0.0000 C   0  0  0  0  0  0  0  0  0  0  0  0
  -13.1428    6.3588   -0.0000 C   0  0  0  0  0  0  0  0  0  0  0  0
   -5.4880   10.6114   -0.0000 O   0  0  0  0  0  0  0  0  0  0  0  0
  -14.2161    4.2729   -0.0000 O   0  0  0  0  0  0  0  0  0  0  0  0
  1  2  2  0
  2  3  1  0
  2  4  1  0
  4  5  2  0
  4  6  1  0
  5  7  1  0
  6  8  2  0
  7  9  2  0
  9 10  1  0
 10 11  1  0
 12 11  1  6
 13 12  1  6
 12 14  1  0
 13 15  1  0
 13 16  1  0
 14 17  1  0
 15 18  1  0
 15 19  1  1
 16 20  1  0
 16 21  1  1
 17 22  2  0
 18 23  1  0
 18 24  1  1
 19 25  1  0
 20 26  1  0
 20 27  1  1
 21 28  1  0
 22 29  1  0
 23 30  2  0
 26 31  2  0
 29 32  2  0
  8  9  1  0
 17 18  1  0
 20 25  1  0
 26 28  1  0
 29 30  1  0
M  CHG  2   2   1   3  -1
M  END
>  <MolRegNo>  (1) 
2057981

>  <m>  (1) 
=

>  <Value>  (1) 
7

>  <Unit>  (1) 
nM

>  <Type>  (1) 
Ki

>  <pValue>  (1) 
8.15

>  <Ligand Efficiency>  (1) 
0.35

>  <Binding Efficiency>  (1) 
18.81

>  <Surface Efficiency>  (1) 
10.55

>  <Assay Index>  (1) 
985527

>  <Assay Category>  (1) 


>  <Assay Organism>  (1) 
Homo sapiens

>  <Target ID>  (1) 
65

>  <Target Name>  (1) 
Cytochrome P450 19A1

>  <Target Organism>  (1) 
Homo sapiens

>  <Target Description>  (1) 
Target is a single protein chain

>  <Sequence Accession>  (1) 
P11511

>  <Reference>  (1) 


>  <Pubmed ID>  (1) 
26469743

>  <DOI>  (1) 
10.1016/j.ejmech.2015.09.038

$$$$
