4wnv_ligand_320
     RDKit          2D

 23 26  0  0  0  0  0  0  0  0999 V2000
    0.0000   -0.0000   -0.0000 O   0  0  0  0  0  0  0  0  0  0  0  0
    1.0699    0.6378   -0.0000 C   0  0  0  0  0  0  0  0  0  0  0  0
    2.3456   -0.1029   -0.0000 C   0  0  0  0  0  0  0  0  0  0  0  0
    1.0494    2.1604   -0.0000 C   0  0  0  0  0  0  0  0  0  0  0  0
    3.6213    0.6996   -0.0000 C   0  0  0  0  0  0  0  0  0  0  0  0
    2.3045    2.9217   -0.0000 C   0  0  0  0  0  0  0  0  0  0  0  0
    4.9176   -0.0412   -0.0000 C   0  0  0  0  0  0  0  0  0  0  0  0
    3.6007    2.2222   -0.0000 C   0  0  0  0  0  0  0  0  0  0  0  0
    4.9176   -1.5843   -0.0000 C   0  0  0  0  0  0  0  0  0  0  0  0
    6.1932    0.7613   -0.0000 C   0  0  0  0  0  0  0  0  0  0  0  0
    4.8764    2.9835   -0.0000 C   0  0  0  0  0  0  0  0  0  0  0  0
    3.5596    3.4978   -0.0000 C   0  0  0  0  0  0  0  0  0  0  0  0
    5.9875   -2.1810   -0.0000 C   0  0  0  0  0  0  0  0  0  0  0  0
    6.1521    2.2839   -0.0000 C   0  0  0  0  0  0  0  0  0  0  0  0
    4.8353    4.5266   -0.0000 C   0  0  0  0  0  0  0  0  0  0  0  0
    7.4278    3.0452   -0.0000 C   0  0  0  0  0  0  0  0  0  0  0  0
    6.1109    5.3085   -0.0000 C   0  0  0  0  0  0  0  0  0  0  0  0
    7.4072    4.5678   -0.0000 C   0  0  0  0  0  0  0  0  0  0  0  0
   10.0203    3.0452   -0.0000 C   0  0  0  0  0  0  0  0  0  0  0  0
    8.6829    5.3702   -0.0000 C   0  0  0  0  0  0  0  0  0  0  0  0
    7.3866    5.8435   -0.0000 C   0  0  0  0  0  0  0  0  0  0  0  0
    9.9997    4.6089   -0.0000 C   0  0  0  0  0  0  0  0  0  0  0  0
    8.6623    6.6459   -0.0000 O   0  0  0  0  0  0  0  0  0  0  0  0
  1  2  2  0
  2  3  1  0
  2  4  1  0
  3  5  2  0
  4  6  1  0
  5  7  1  0
  5  8  1  0
  7  9  2  0
  7 10  1  0
  8 11  1  0
  8 12  1  6
  9 13  1  0
 14 10  1  1
 11 15  1  6
 14 16  1  0
 15 17  1  0
 16 18  1  0
 16 19  1  6
 18 20  1  0
 18 21  1  6
 19 22  1  0
 20 23  2  0
  6  8  1  0
 11 14  1  0
 17 18  1  0
 20 22  1  0
M  END
>  <MolRegNo>  (1) 
2057966

>  <m>  (1) 
=

>  <Value>  (1) 
4.9

>  <Unit>  (1) 
nM

>  <Type>  (1) 
Ki

>  <pValue>  (1) 
8.31

>  <Ligand Efficiency>  (1) 
0.49

>  <Binding Efficiency>  (1) 
26.6

>  <Surface Efficiency>  (1) 
24.34

>  <Assay Index>  (1) 
985528

>  <Assay Category>  (1) 


>  <Assay Organism>  (1) 
Homo sapiens

>  <Target ID>  (1) 
65

>  <Target Name>  (1) 
Cytochrome P450 19A1

>  <Target Organism>  (1) 
Homo sapiens

>  <Target Description>  (1) 
Target is a single protein chain

>  <Sequence Accession>  (1) 
P11511

>  <Reference>  (1) 


>  <Pubmed ID>  (1) 
26469743

>  <DOI>  (1) 
10.1016/j.ejmech.2015.09.038

$$$$
