4wnv_ligand_167
     RDKit          2D

 29 32  0  0  0  0  0  0  0  0999 V2000
    0.0000   -0.0000   -0.0000 O   0  0  0  0  0  0  0  0  0  0  0  0
   -1.3107   -0.7388   -0.0000 C   0  0  0  0  0  0  0  0  0  0  0  0
   -1.3226   -2.2282   -0.0000 O   0  0  0  0  0  0  0  0  0  0  0  0
   -2.6214    0.0238   -0.0000 C   0  0  0  0  0  0  0  0  0  0  0  0
   -0.0357   -2.9669   -0.0000 C   0  0  0  0  0  0  0  0  0  0  0  0
   -2.6333    1.5371   -0.0000 C   0  0  0  0  0  0  0  0  0  0  0  0
   -3.9202   -0.7149   -0.0000 C   0  0  0  0  0  0  0  0  0  0  0  0
    1.2511   -2.2044   -0.0000 C   0  0  0  0  0  0  0  0  0  0  0  0
   -0.0477   -4.4564   -0.0000 C   0  0  0  0  0  0  0  0  0  0  0  0
   -3.9440    2.2997   -0.0000 C   0  0  0  0  0  0  0  0  0  0  0  0
   -5.2309    0.0357   -0.0000 C   0  0  0  0  0  0  0  0  0  0  0  0
    2.5380   -2.9550   -0.0000 C   0  0  0  0  0  0  0  0  0  0  0  0
    1.2392   -0.7030   -0.0000 C   0  0  0  0  0  0  0  0  0  0  0  0
   -1.3584   -5.1951   -0.0000 C   0  0  0  0  0  0  0  0  0  0  0  0
    1.2392   -5.1951   -0.0000 C   0  0  0  0  0  0  0  0  0  0  0  0
   -5.2547    1.5609   -0.0000 C   0  0  0  0  0  0  0  0  0  0  0  0
    3.8249   -2.1924   -0.0000 C   0  0  0  0  0  0  0  0  0  0  0  0
    2.5261    0.0596   -0.0000 C   0  0  0  0  0  0  0  0  0  0  0  0
   -2.6691   -4.4445   -0.0000 C   0  0  0  0  0  0  0  0  0  0  0  0
   -1.3584   -6.6965   -0.0000 C   0  0  0  0  0  0  0  0  0  0  0  0
    1.2273   -6.6846   -0.0000 N   0  0  0  0  0  0  0  0  0  0  0  0
    3.8129   -0.6792   -0.0000 C   0  0  0  0  0  0  0  0  0  0  0  0
   -3.9798   -5.1832   -0.0000 C   0  0  0  0  0  0  0  0  0  0  0  0
   -2.6691   -7.4352   -0.0000 C   0  0  0  0  0  0  0  0  0  0  0  0
    2.4308   -7.5425   -0.0000 N   0  0  0  0  0  0  0  0  0  0  0  0
    0.0000   -7.5425   -0.0000 C   0  0  0  0  0  0  0  0  0  0  0  0
   -3.9917   -6.6726   -0.0000 C   0  0  0  0  0  0  0  0  0  0  0  0
    1.9541   -8.9604   -0.0000 N   0  0  0  0  0  0  0  0  0  0  0  0
    0.4528   -8.9604   -0.0000 C   0  0  0  0  0  0  0  0  0  0  0  0
  1  2  2  0
  2  3  1  0
  2  4  1  0
  5  3  1  6
  4  6  2  0
  4  7  1  0
  5  8  1  0
  5  9  1  0
  6 10  1  0
  7 11  2  0
  8 12  2  0
  8 13  1  0
  9 14  1  0
  9 15  1  6
 10 16  2  0
 12 17  1  0
 13 18  2  0
 14 19  2  0
 14 20  1  0
 15 21  1  0
 17 22  2  0
 19 23  1  0
 20 24  2  0
 21 25  1  0
 21 26  1  0
 23 27  2  0
 25 28  2  0
 26 29  2  0
 11 16  1  0
 18 22  1  0
 24 27  1  0
 28 29  1  0
M  END
>  <MolRegNo>  (1) 
1271154

>  <m>  (1) 
=

>  <Value>  (1) 
100

>  <Unit>  (1) 
nM

>  <Type>  (1) 
Ki

>  <pValue>  (1) 
7

>  <Ligand Efficiency>  (1) 
0.33

>  <Binding Efficiency>  (1) 
18.26

>  <Surface Efficiency>  (1) 
12.28

>  <Assay Index>  (1) 
630342

>  <Assay Category>  (1) 


>  <Assay Organism>  (1) 
Homo sapiens

>  <Target ID>  (1) 
65

>  <Target Name>  (1) 
Cytochrome P450 19A1

>  <Target Organism>  (1) 
Homo sapiens

>  <Target Description>  (1) 
Target is a single protein chain

>  <Sequence Accession>  (1) 
P11511

>  <Reference>  (1) 
Bioorg Med Chem Lett 22 (1), 718-722 (2012)

>  <Pubmed ID>  (1) 
22079757

>  <DOI>  (1) 
10.1016/j.bmcl.2011.10.039

$$$$
