4wnv_ligand_201
     RDKit          2D

 26 30  0  0  0  0  0  0  0  0999 V2000
    0.0000   -0.0000   -0.0000 O   0  0  0  0  0  0  0  0  0  0  0  0
    0.0000   -1.4855   -0.0000 C   0  0  0  0  0  0  0  0  0  0  0  0
   -1.2953   -2.2342   -0.0000 C   0  0  0  0  0  0  0  0  0  0  0  0
    1.2953   -2.2223   -0.0000 C   0  0  0  0  0  0  0  0  0  0  0  0
   -1.3072   -3.7197   -0.0000 C   0  0  0  0  0  0  0  0  0  0  0  0
   -2.6026   -1.4736   -0.0000 C   0  0  0  0  0  0  0  0  0  0  0  0
    2.5788   -1.4617   -0.0000 C   0  0  0  0  0  0  0  0  0  0  0  0
   -2.6026   -4.4565   -0.0000 C   0  0  0  0  0  0  0  0  0  0  0  0
   -0.0357   -4.4565   -0.0000 C   0  0  0  0  0  0  0  0  0  0  0  0
   -3.9098   -2.1985   -0.0000 C   0  0  0  0  0  0  0  0  0  0  0  0
    3.8623   -2.2104   -0.0000 C   0  0  0  0  0  0  0  0  0  0  0  0
    2.5669    0.0475   -0.0000 C   0  0  0  0  0  0  0  0  0  0  0  0
   -3.9098   -3.7078   -0.0000 C   0  0  0  0  0  0  0  0  0  0  0  0
    1.2597   -3.6959   -0.0000 C   0  0  0  0  0  0  0  0  0  0  0  0
   -5.3596   -1.7232   -0.0000 O   0  0  0  0  0  0  0  0  0  0  0  0
    5.1576   -1.4498   -0.0000 C   0  0  0  0  0  0  0  0  0  0  0  0
    3.8623   -3.6959   -0.0000 C   0  0  0  0  0  0  0  0  0  0  0  0
    3.8504    0.8081   -0.0000 C   0  0  0  0  0  0  0  0  0  0  0  0
   -5.3596   -4.1713   -0.0000 O   0  0  0  0  0  0  0  0  0  0  0  0
    2.5432   -4.4327   -0.0000 N   0  0  0  0  0  0  0  0  0  0  0  0
   -6.2509   -2.9353   -0.0000 C   0  0  0  0  0  0  0  0  0  0  0  0
    5.1457    0.0713   -0.0000 C   0  0  0  0  0  0  0  0  0  0  0  0
    4.1475    2.2936   -0.0000 O   0  0  0  0  0  0  0  0  0  0  0  0
    2.5313   -5.9182   -0.0000 C   0  0  0  0  0  0  0  0  0  0  0  0
    6.2509    1.0933   -0.0000 O   0  0  0  0  0  0  0  0  0  0  0  0
    5.6330    2.4719   -0.0000 C   0  0  0  0  0  0  0  0  0  0  0  0
  1  2  2  0
  2  3  1  0
  2  4  1  0
  3  5  2  0
  3  6  1  0
  4  7  1  0
  5  8  1  0
  5  9  1  0
  6 10  2  0
  7 11  2  0
  7 12  1  0
  8 13  2  0
  9 14  1  0
 10 15  1  0
 11 16  1  0
 11 17  1  0
 12 18  2  0
 13 19  1  0
 14 20  1  0
 15 21  1  0
 16 22  2  0
 18 23  1  0
 20 24  1  0
 22 25  1  0
 23 26  1  0
 10 13  1  0
 17 20  1  0
 18 22  1  0
 19 21  1  0
 25 26  1  0
M  END
>  <MolRegNo>  (1) 
442547

>  <m>  (1) 
=

>  <Value>  (1) 
78

>  <Unit>  (1) 
nM

>  <Type>  (1) 
Ki

>  <pValue>  (1) 
7.11

>  <Ligand Efficiency>  (1) 
0

>  <Binding Efficiency>  (1) 
0

>  <Surface Efficiency>  (1) 
0

>  <Assay Index>  (1) 
970467

>  <Assay Category>  (1) 


>  <Assay Organism>  (1) 
Homo sapiens

>  <Target ID>  (1) 
11365

>  <Target Name>  (1) 
Cytochrome P450 2D6

>  <Target Organism>  (1) 
Homo sapiens

>  <Target Description>  (1) 
Target is a single protein chain

>  <Sequence Accession>  (1) 
P10635

>  <Reference>  (1) 
J Med Chem 58 (21), 8360-8372 (2015)

>  <Pubmed ID>  (1) 
26125082

>  <DOI>  (1) 
10.1021/acs.jmedchem.5b00417

$$$$
