4wnv_ligand_222
     RDKit          2D

 27 30  0  0  0  0  0  0  0  0999 V2000
    0.0000   -0.0000   -0.0000 O   0  0  0  0  0  0  0  0  0  0  0  0
    1.0645    0.6346   -0.0000 C   0  0  0  0  0  0  0  0  0  0  0  0
    2.3338   -0.1024   -0.0000 C   0  0  0  0  0  0  0  0  0  0  0  0
    1.0441    2.1495   -0.0000 C   0  0  0  0  0  0  0  0  0  0  0  0
    3.6030    0.6960   -0.0000 C   0  0  0  0  0  0  0  0  0  0  0  0
    2.2928    2.9070   -0.0000 C   0  0  0  0  0  0  0  0  0  0  0  0
    3.5826    2.2110   -0.0000 C   0  0  0  0  0  0  0  0  0  0  0  0
    4.8928   -0.0409   -0.0000 C   0  0  0  0  0  0  0  0  0  0  0  0
    4.8518    2.9684   -0.0000 C   0  0  0  0  0  0  0  0  0  0  0  0
    3.5416    3.4802   -0.0000 C   0  0  0  0  0  0  0  0  0  0  0  0
    6.1620    0.7575   -0.0000 C   0  0  0  0  0  0  0  0  0  0  0  0
    4.8928   -1.5763   -0.0000 C   0  0  0  0  0  0  0  0  0  0  0  0
    6.1211    2.2724   -0.0000 C   0  0  0  0  0  0  0  0  0  0  0  0
    4.8109    4.5038   -0.0000 C   0  0  0  0  0  0  0  0  0  0  0  0
    3.5416   -2.3338   -0.0000 C   0  0  0  0  0  0  0  0  0  0  0  0
    7.3903    3.0298   -0.0000 C   0  0  0  0  0  0  0  0  0  0  0  0
    6.0801    5.2817   -0.0000 C   0  0  0  0  0  0  0  0  0  0  0  0
    3.5416   -3.8692   -0.0000 C   0  0  0  0  0  0  0  0  0  0  0  0
    7.3699    4.5448   -0.0000 C   0  0  0  0  0  0  0  0  0  0  0  0
    9.9698    3.0298   -0.0000 C   0  0  0  0  0  0  0  0  0  0  0  0
    2.1905   -4.6266   -0.0000 C   0  0  0  0  0  0  0  0  0  0  0  0
    8.6391    5.3432   -0.0000 C   0  0  0  0  0  0  0  0  0  0  0  0
    7.3494    5.8140   -0.0000 C   0  0  0  0  0  0  0  0  0  0  0  0
    9.9493    4.5857   -0.0000 C   0  0  0  0  0  0  0  0  0  0  0  0
    2.1905   -6.1620   -0.0000 C   0  0  0  0  0  0  0  0  0  0  0  0
    8.6186    6.6124   -0.0000 O   0  0  0  0  0  0  0  0  0  0  0  0
    1.1055   -6.7762   -0.0000 C   0  0  0  0  0  0  0  0  0  0  0  0
  1  2  2  0
  2  3  1  0
  2  4  1  0
  3  5  2  0
  4  6  1  0
  5  7  1  0
  5  8  1  0
  7  9  1  0
  7 10  1  6
  8 11  1  0
  8 12  1  1
  9 13  1  0
  9 14  1  6
 12 15  1  0
 13 16  1  0
 14 17  1  0
 15 18  1  0
 16 19  1  0
 16 20  1  6
 18 21  1  0
 19 22  1  0
 19 23  1  6
 20 24  1  0
 21 25  1  0
 22 26  2  0
 25 27  1  0
  6  7  1  0
 13 11  1  1
 17 19  1  0
 22 24  1  0
M  END
>  <MolRegNo>  (1) 
2057842

>  <m>  (1) 
=

>  <Value>  (1) 
9.3

>  <Unit>  (1) 
nM

>  <Type>  (1) 
Ki

>  <pValue>  (1) 
8.03

>  <Ligand Efficiency>  (1) 
0.41

>  <Binding Efficiency>  (1) 
21.67

>  <Surface Efficiency>  (1) 
23.53

>  <Assay Index>  (1) 
985353

>  <Assay Category>  (1) 


>  <Assay Organism>  (1) 
Homo sapiens

>  <Target ID>  (1) 
65

>  <Target Name>  (1) 
Cytochrome P450 19A1

>  <Target Organism>  (1) 
Homo sapiens

>  <Target Description>  (1) 
Target is a single protein chain

>  <Sequence Accession>  (1) 
P11511

>  <Reference>  (1) 


>  <Pubmed ID>  (1) 
26469743

>  <DOI>  (1) 
10.1016/j.ejmech.2015.09.038

$$$$
