4wnv_ligand_51
     RDKit          2D

 31 34  0  0  0  0  0  0  0  0999 V2000
    0.0000   -0.0000   -0.0000 Cl  0  0  0  0  0  0  0  0  0  0  0  0
   -8.1802    5.1249   -0.0000 O   0  0  0  0  0  0  0  0  0  0  0  0
   -9.4983    4.3365   -0.0000 C   0  0  0  0  0  0  0  0  0  0  0  0
   -7.1207    4.5459   -0.0000 C   0  0  0  0  0  0  0  0  0  0  0  0
   -9.4860    2.7965   -0.0000 C   0  0  0  0  0  0  0  0  0  0  0  0
  -10.8535    5.0756   -0.0000 C   0  0  0  0  0  0  0  0  0  0  0  0
  -10.8042    2.0081   -0.0000 C   0  0  0  0  0  0  0  0  0  0  0  0
  -12.1840    4.2749   -0.0000 C   0  0  0  0  0  0  0  0  0  0  0  0
  -12.1594    2.7473   -0.0000 C   0  0  0  0  0  0  0  0  0  0  0  0
  -10.7796    0.4928   -0.0000 C   0  0  0  0  0  0  0  0  0  0  0  0
  -13.4776    1.9588   -0.0000 N   0  0  0  0  0  0  0  0  0  0  0  0
  -12.0978   -0.2957   -0.0000 C   0  0  0  0  0  0  0  0  0  0  0  0
   -9.4491   -0.2341   -0.0000 C   0  0  0  0  0  0  0  0  0  0  0  0
  -13.4529    0.4435   -0.0000 C   0  0  0  0  0  0  0  0  0  0  0  0
   -9.4367   -1.4537   -0.0000 O   0  0  0  0  0  0  0  0  0  0  0  0
   -8.1432    0.5790   -0.0000 C   0  0  0  0  0  0  0  0  0  0  0  0
   -6.8373   -0.1971   -0.0000 N   0  0  0  0  0  0  0  0  0  0  0  0
   -8.1555    2.1066   -0.0000 C   0  0  0  0  0  0  0  0  0  0  0  0
   -6.8497   -1.7494   -0.0000 C   0  0  0  0  0  0  0  0  0  0  0  0
   -5.4822    0.6037   -0.0000 C   0  0  0  0  0  0  0  0  0  0  0  0
   -6.0612    0.9486   -0.0000 C   0  0  0  0  0  0  0  0  0  0  0  0
   -6.8497    2.8951   -0.0000 C   0  0  0  0  0  0  0  0  0  0  0  0
   -8.1925   -2.5009   -0.0000 C   0  0  0  0  0  0  0  0  0  0  0  0
   -5.5315   -2.5009   -0.0000 C   0  0  0  0  0  0  0  0  0  0  0  0
   -5.4945    2.1313   -0.0000 C   0  0  0  0  0  0  0  0  0  0  0  0
   -7.5149    1.6878   -0.0000 C   0  0  0  0  0  0  0  0  0  0  0  0
   -8.2048   -4.0285   -0.0000 C   0  0  0  0  0  0  0  0  0  0  0  0
   -5.5438   -4.0285   -0.0000 C   0  0  0  0  0  0  0  0  0  0  0  0
   -4.1763    2.9197   -0.0000 C   0  0  0  0  0  0  0  0  0  0  0  0
   -6.8866   -4.7800   -0.0000 C   0  0  0  0  0  0  0  0  0  0  0  0
   -3.1168    2.3284   -0.0000 C   0  0  0  0  0  0  0  0  0  0  0  0
  2  3  1  0
  2  4  1  0
  3  5  2  0
  3  6  1  0
  5  7  1  0
  6  8  2  0
  7  9  2  0
  7 10  1  0
  9 11  1  0
 10 12  2  0
 10 13  1  0
 11 14  2  0
 13 15  1  0
 13 16  1  0
 16 17  1  0
 16 18  1  0
 17 19  1  0
 17 20  1  0
 17 21  1  0
 18 22  1  0
 19 23  2  0
 19 24  1  0
 20 25  1  0
 21 26  1  0
 23 27  1  0
 24 28  2  0
 25 29  1  0
 27 30  2  0
 29 31  2  0
  8  9  1  0
 12 14  1  0
 22 25  1  0
 22 26  1  0
 28 30  1  0
M  CHG  2   1  -1  17   1
M  END
>  <MolRegNo>  (1) 
676295

>  <m>  (1) 
=

>  <Value>  (1) 
25000

>  <Unit>  (1) 
nM

>  <Type>  (1) 
Ki

>  <pValue>  (1) 
4.6

>  <Ligand Efficiency>  (1) 
0

>  <Binding Efficiency>  (1) 
0

>  <Surface Efficiency>  (1) 
0

>  <Assay Index>  (1) 
122804

>  <Assay Category>  (1) 


>  <Assay Organism>  (1) 
Homo sapiens

>  <Target ID>  (1) 
11365

>  <Target Name>  (1) 
Cytochrome P450 2D6

>  <Target Organism>  (1) 
Homo sapiens

>  <Target Description>  (1) 
Target is a single protein chain

>  <Sequence Accession>  (1) 
P10635

>  <Reference>  (1) 
J Med Chem 36 (9), 1136-1145 (1993)

>  <Pubmed ID>  (1) 
8487254

>  <DOI>  (1) 
10.1021/jm00061a004

$$$$
