4wnv_ligand_3
     RDKit          2D

 40 43  0  0  0  0  0  0  0  0999 V2000
    0.0000   -0.0000   -0.0000 F   0  0  0  0  0  0  0  0  0  0  0  0
   -1.5186   -0.0121   -0.0000 C   0  0  0  0  0  0  0  0  0  0  0  0
   -3.0492   -0.0241   -0.0000 F   0  0  0  0  0  0  0  0  0  0  0  0
   -1.5547    1.5065   -0.0000 F   0  0  0  0  0  0  0  0  0  0  0  0
   -1.5186   -1.5065   -0.0000 C   0  0  0  0  0  0  0  0  0  0  0  0
   -0.2169   -2.2538   -0.0000 C   0  0  0  0  0  0  0  0  0  0  0  0
   -2.8323   -2.2538   -0.0000 C   0  0  0  0  0  0  0  0  0  0  0  0
   -0.2290   -3.7483   -0.0000 C   0  0  0  0  0  0  0  0  0  0  0  0
   -2.8443   -3.7483   -0.0000 C   0  0  0  0  0  0  0  0  0  0  0  0
   -1.5547   -4.4955   -0.0000 C   0  0  0  0  0  0  0  0  0  0  0  0
   -1.5668   -6.0021   -0.0000 C   0  0  0  0  0  0  0  0  0  0  0  0
   -2.6274   -6.5565   -0.0000 O   0  0  0  0  0  0  0  0  0  0  0  0
   -0.2652   -6.7493   -0.0000 N   0  0  0  0  0  0  0  0  0  0  0  0
   -0.2772   -8.2558   -0.0000 C   0  0  0  0  0  0  0  0  0  0  0  0
   -1.5909   -9.0031   -0.0000 C   0  0  0  0  0  0  0  0  0  0  0  0
   -1.6030  -10.4976   -0.0000 N   0  0  0  0  0  0  0  0  0  0  0  0
   -3.0613   -8.5933   -0.0000 C   0  0  0  0  0  0  0  0  0  0  0  0
   -2.9167  -11.2448   -0.0000 C   0  0  0  0  0  0  0  0  0  0  0  0
   -0.3134  -11.2448   -0.0000 C   0  0  0  0  0  0  0  0  0  0  0  0
   -4.1460   -9.6419   -0.0000 C   0  0  0  0  0  0  0  0  0  0  0  0
   -3.4590   -7.0988   -0.0000 C   0  0  0  0  0  0  0  0  0  0  0  0
   -2.9287  -12.7393   -0.0000 C   0  0  0  0  0  0  0  0  0  0  0  0
   -0.3254  -12.7393   -0.0000 C   0  0  0  0  0  0  0  0  0  0  0  0
   -5.6164   -9.2441   -0.0000 C   0  0  0  0  0  0  0  0  0  0  0  0
   -4.9415   -6.6890   -0.0000 C   0  0  0  0  0  0  0  0  0  0  0  0
   -1.6391  -13.4865   -0.0000 N   0  0  0  0  0  0  0  0  0  0  0  0
   -6.0382   -7.7617   -0.0000 C   0  0  0  0  0  0  0  0  0  0  0  0
   -1.6512  -14.9810   -0.0000 C   0  0  0  0  0  0  0  0  0  0  0  0
   -0.3616  -15.7283   -0.0000 C   0  0  0  0  0  0  0  0  0  0  0  0
    0.9280  -14.9569   -0.0000 O   0  0  0  0  0  0  0  0  0  0  0  0
   -0.3736  -17.2469   -0.0000 C   0  0  0  0  0  0  0  0  0  0  0  0
    0.9160  -17.9821   -0.0000 O   0  0  0  0  0  0  0  0  0  0  0  0
    0.9039  -19.4886   -0.0000 C   0  0  0  0  0  0  0  0  0  0  0  0
    2.1935  -20.2358   -0.0000 C   0  0  0  0  0  0  0  0  0  0  0  0
   -0.4218  -20.2358   -0.0000 C   0  0  0  0  0  0  0  0  0  0  0  0
    2.1815  -21.7303   -0.0000 C   0  0  0  0  0  0  0  0  0  0  0  0
   -0.4339  -21.7303   -0.0000 C   0  0  0  0  0  0  0  0  0  0  0  0
    0.8678  -22.4776   -0.0000 C   0  0  0  0  0  0  0  0  0  0  0  0
    0.8557  -23.9721   -0.0000 O   0  0  0  0  0  0  0  0  0  0  0  0
    2.1453  -24.7193   -0.0000 C   0  0  0  0  0  0  0  0  0  0  0  0
  1  2  1  0
  2  3  1  0
  2  4  1  0
  2  5  1  0
  5  6  2  0
  5  7  1  0
  6  8  1  0
  7  9  2  0
  8 10  2  0
 10 11  1  0
 11 12  2  0
 11 13  1  0
 13 14  1  0
 14 15  1  0
 15 16  1  0
 15 17  1  0
 16 18  1  0
 16 19  1  0
 17 20  2  0
 17 21  1  0
 18 22  1  0
 19 23  1  0
 20 24  1  0
 21 25  2  0
 22 26  1  0
 24 27  2  0
 26 28  1  0
 28 29  1  0
 29 30  1  0
 29 31  1  0
 31 32  1  0
 32 33  1  0
 33 34  2  0
 33 35  1  0
 34 36  1  0
 35 37  2  0
 36 38  2  0
 38 39  1  0
 39 40  1  0
  9 10  1  0
 23 26  1  0
 25 27  1  0
 37 38  1  0
M  END
>  <MolRegNo>  (1) 
97260

>  <m>  (1) 
=

>  <Value>  (1) 
3000

>  <Unit>  (1) 
nM

>  <Type>  (1) 
Ki

>  <pValue>  (1) 
5.52

>  <Ligand Efficiency>  (1) 
0

>  <Binding Efficiency>  (1) 
0

>  <Surface Efficiency>  (1) 
0

>  <Assay Index>  (1) 
51650

>  <Assay Category>  (1) 


>  <Assay Organism>  (1) 


>  <Target ID>  (1) 
11365

>  <Target Name>  (1) 
Cytochrome P450 2D6

>  <Target Organism>  (1) 
Homo sapiens

>  <Target Description>  (1) 
Target is a single protein chain

>  <Sequence Accession>  (1) 
P10635

>  <Reference>  (1) 
Bioorg Med Chem Lett 14 (9), 2025-2030 (2004)

>  <Pubmed ID>  (1) 
15080972

>  <DOI>  (1) 
10.1016/j.bmcl.2004.02.078

$$$$
