4wnv_ligand_281
     RDKit          2D

 24 27  0  0  0  0  0  0  0  0999 V2000
    0.0000   -0.0000   -0.0000 O   0  0  0  0  0  0  0  0  0  0  0  0
   -1.0978    0.6099   -0.0000 C   0  0  0  0  0  0  0  0  0  0  0  0
   -2.3989   -0.1423   -0.0000 C   0  0  0  0  0  0  0  0  0  0  0  0
   -1.1385    2.1143   -0.0000 C   0  0  0  0  0  0  0  0  0  0  0  0
   -3.7203    0.6302   -0.0000 C   0  0  0  0  0  0  0  0  0  0  0  0
   -2.4395    2.8461   -0.0000 C   0  0  0  0  0  0  0  0  0  0  0  0
    0.1220    2.8665   -0.0000 C   0  0  0  0  0  0  0  0  0  0  0  0
   -3.7406    2.1346   -0.0000 C   0  0  0  0  0  0  0  0  0  0  0  0
   -5.0214   -0.1220   -0.0000 C   0  0  0  0  0  0  0  0  0  0  0  0
   -2.4802    4.3708   -0.0000 C   0  0  0  0  0  0  0  0  0  0  0  0
    0.1016    4.3708   -0.0000 C   0  0  0  0  0  0  0  0  0  0  0  0
    2.6835    2.8665   -0.0000 C   0  0  0  0  0  0  0  0  0  0  0  0
   -5.0824    1.3824   -0.0000 O   0  0  0  0  0  0  0  0  0  0  0  0
   -5.0620    2.8665   -0.0000 C   0  0  0  0  0  0  0  0  0  0  0  0
   -6.3225    0.6505   -0.0000 C   0  0  0  0  0  0  0  0  0  0  0  0
   -1.2198    5.1434   -0.0000 C   0  0  0  0  0  0  0  0  0  0  0  0
    1.3621    5.1637   -0.0000 C   0  0  0  0  0  0  0  0  0  0  0  0
    0.0813    5.6313   -0.0000 C   0  0  0  0  0  0  0  0  0  0  0  0
    2.6632    4.4115   -0.0000 C   0  0  0  0  0  0  0  0  0  0  0  0
   -6.4445    2.1549   -0.0000 C   0  0  0  0  0  0  0  0  0  0  0  0
   -6.3428    2.1549   -0.0000 C   0  0  0  0  0  0  0  0  0  0  0  0
    1.3417    6.4241   -0.0000 O   0  0  0  0  0  0  0  0  0  0  0  0
   -7.5219    1.5450   -0.0000 O   0  0  0  0  0  0  0  0  0  0  0  0
   -6.4648    3.4154   -0.0000 C   0  0  0  0  0  0  0  0  0  0  0  0
  1  2  2  0
  2  3  1  0
  4  2  1  6
  3  5  2  0
  4  6  1  0
  4  7  1  0
  5  8  1  0
  5  9  1  0
  6 10  1  1
  7 11  1  0
  7 12  1  1
  8 13  1  1
  8 14  1  0
  9 15  1  0
 10 16  1  0
 11 17  1  0
 11 18  1  1
 12 19  1  0
 13 20  1  0
 14 21  1  0
 17 22  2  0
 20 23  2  0
 20 24  1  0
  6  8  1  0
 11 16  1  0
 15 21  1  0
 17 19  1  0
M  END
>  <MolRegNo>  (1) 
2058237

>  <m>  (1) 
=

>  <Value>  (1) 
1100

>  <Unit>  (1) 
nM

>  <Type>  (1) 
Ki

>  <pValue>  (1) 
5.96

>  <Ligand Efficiency>  (1) 
0.34

>  <Binding Efficiency>  (1) 
18.03

>  <Surface Efficiency>  (1) 
9.86

>  <Assay Index>  (1) 
985355

>  <Assay Category>  (1) 


>  <Assay Organism>  (1) 
Homo sapiens

>  <Target ID>  (1) 
65

>  <Target Name>  (1) 
Cytochrome P450 19A1

>  <Target Organism>  (1) 
Homo sapiens

>  <Target Description>  (1) 
Target is a single protein chain

>  <Sequence Accession>  (1) 
P11511

>  <Reference>  (1) 


>  <Pubmed ID>  (1) 
26469743

>  <DOI>  (1) 
10.1016/j.ejmech.2015.09.038

$$$$
