4wnv_ligand_363
     RDKit          2D

 27 31  0  0  0  0  0  0  0  0999 V2000
    0.0000   -0.0000   -0.0000 O   0  0  0  0  0  0  0  0  0  0  0  0
    0.0000   -1.2178   -0.0000 C   0  0  0  0  0  0  0  0  0  0  0  0
   -1.3022   -1.9654   -0.0000 C   0  0  0  0  0  0  0  0  0  0  0  0
    1.2781   -1.9534   -0.0000 C   0  0  0  0  0  0  0  0  0  0  0  0
   -1.3143   -3.4244   -0.0000 C   0  0  0  0  0  0  0  0  0  0  0  0
   -2.5804   -1.2058   -0.0000 C   0  0  0  0  0  0  0  0  0  0  0  0
   -1.3143   -0.7235   -0.0000 C   0  0  0  0  0  0  0  0  0  0  0  0
    1.2661   -3.4485   -0.0000 C   0  0  0  0  0  0  0  0  0  0  0  0
   -2.5924   -4.1358   -0.0000 C   0  0  0  0  0  0  0  0  0  0  0  0
   -3.8826   -1.9413   -0.0000 C   0  0  0  0  0  0  0  0  0  0  0  0
   -3.8706   -3.4124   -0.0000 C   0  0  0  0  0  0  0  0  0  0  0  0
   -2.5804   -5.5948   -0.0000 C   0  0  0  0  0  0  0  0  0  0  0  0
   -5.1487   -4.1238   -0.0000 C   0  0  0  0  0  0  0  0  0  0  0  0
   -3.8585   -6.3424   -0.0000 C   0  0  0  0  0  0  0  0  0  0  0  0
   -5.1608   -5.5828   -0.0000 C   0  0  0  0  0  0  0  0  0  0  0  0
   -6.4630   -3.4003   -0.0000 C   0  0  0  0  0  0  0  0  0  0  0  0
   -3.8585   -7.8617   -0.0000 C   0  0  0  0  0  0  0  0  0  0  0  0
   -6.4630   -6.3304   -0.0000 C   0  0  0  0  0  0  0  0  0  0  0  0
   -7.7170   -4.1117   -0.0000 C   0  0  0  0  0  0  0  0  0  0  0  0
   -2.5321   -8.5972   -0.0000 C   0  0  0  0  0  0  0  0  0  0  0  0
   -7.7411   -5.5707   -0.0000 C   0  0  0  0  0  0  0  0  0  0  0  0
   -2.5201  -10.1165   -0.0000 C   0  0  0  0  0  0  0  0  0  0  0  0
   -1.2299   -7.8014   -0.0000 C   0  0  0  0  0  0  0  0  0  0  0  0
   -8.8143   -6.1616   -0.0000 O   0  0  0  0  0  0  0  0  0  0  0  0
   -1.1937  -10.8521   -0.0000 C   0  0  0  0  0  0  0  0  0  0  0  0
    0.0965   -8.5370   -0.0000 C   0  0  0  0  0  0  0  0  0  0  0  0
    0.1085  -10.0562   -0.0000 C   0  0  0  0  0  0  0  0  0  0  0  0
  1  2  2  0
  2  3  1  0
  2  4  1  0
  3  5  1  0
  3  6  1  0
  3  7  1  1
  4  8  1  0
  5  9  1  0
  6 10  1  0
  9 11  1  0
  9 12  1  6
 11 13  1  0
 12 14  1  0
 13 15  2  0
 13 16  1  0
 14 17  1  6
 15 18  1  0
 16 19  2  0
 17 20  1  0
 18 21  2  0
 20 22  2  0
 20 23  1  0
 21 24  1  0
 22 25  1  0
 23 26  2  0
 25 27  2  0
  5  8  1  1
 11 10  1  1
 14 15  1  0
 19 21  1  0
 26 27  1  0
M  END
>  <MolRegNo>  (1) 
2058268

>  <m>  (1) 
=

>  <Value>  (1) 
100

>  <Unit>  (1) 
nM

>  <Type>  (1) 
Ki

>  <pValue>  (1) 
7

>  <Ligand Efficiency>  (1) 
0.35

>  <Binding Efficiency>  (1) 
19.42

>  <Surface Efficiency>  (1) 
18.77

>  <Assay Index>  (1) 
985353

>  <Assay Category>  (1) 


>  <Assay Organism>  (1) 
Homo sapiens

>  <Target ID>  (1) 
65

>  <Target Name>  (1) 
Cytochrome P450 19A1

>  <Target Organism>  (1) 
Homo sapiens

>  <Target Description>  (1) 
Target is a single protein chain

>  <Sequence Accession>  (1) 
P11511

>  <Reference>  (1) 


>  <Pubmed ID>  (1) 
26469743

>  <DOI>  (1) 
10.1016/j.ejmech.2015.09.038

$$$$
