4wnv_ligand_193
     RDKit          2D

 24 26  0  0  0  0  0  0  0  0999 V2000
    0.0000   -0.0000   -0.0000 O   0  0  0  0  0  0  0  0  0  0  0  0
   -1.1824    0.9577   -0.0000 C   0  0  0  0  0  0  0  0  0  0  0  0
   -0.9577    2.4475   -0.0000 O   0  0  0  0  0  0  0  0  0  0  0  0
   -2.5658    0.3547   -0.0000 C   0  0  0  0  0  0  0  0  0  0  0  0
    0.4375    3.0033   -0.0000 C   0  0  0  0  0  0  0  0  0  0  0  0
   -3.8782    1.1114   -0.0000 N   0  0  0  0  0  0  0  0  0  0  0  0
   -2.8850   -1.0996   -0.0000 C   0  0  0  0  0  0  0  0  0  0  0  0
    0.6621    4.4931   -0.0000 C   0  0  0  0  0  0  0  0  0  0  0  0
   -5.0015    0.1182   -0.0000 N   0  0  0  0  0  0  0  0  0  0  0  0
   -4.3866   -1.2415   -0.0000 N   0  0  0  0  0  0  0  0  0  0  0  0
   -1.8918   -2.1992   -0.0000 C   0  0  0  0  0  0  0  0  0  0  0  0
   -5.1434   -2.5303   -0.0000 C   0  0  0  0  0  0  0  0  0  0  0  0
   -0.4375   -1.8800   -0.0000 C   0  0  0  0  0  0  0  0  0  0  0  0
   -2.3648   -3.6181   -0.0000 C   0  0  0  0  0  0  0  0  0  0  0  0
   -6.6568   -2.5185   -0.0000 C   0  0  0  0  0  0  0  0  0  0  0  0
    0.5557   -2.9796   -0.0000 C   0  0  0  0  0  0  0  0  0  0  0  0
   -1.3716   -4.7177   -0.0000 C   0  0  0  0  0  0  0  0  0  0  0  0
   -7.4136   -3.8073   -0.0000 C   0  0  0  0  0  0  0  0  0  0  0  0
   -7.4136   -1.2060   -0.0000 C   0  0  0  0  0  0  0  0  0  0  0  0
    0.0828   -4.3985   -0.0000 C   0  0  0  0  0  0  0  0  0  0  0  0
   -8.9270   -3.7955   -0.0000 C   0  0  0  0  0  0  0  0  0  0  0  0
   -8.9270   -1.1942   -0.0000 C   0  0  0  0  0  0  0  0  0  0  0  0
    1.0760   -5.4981   -0.0000 C   0  0  0  0  0  0  0  0  0  0  0  0
   -9.6837   -2.4830   -0.0000 C   0  0  0  0  0  0  0  0  0  0  0  0
  1  2  2  0
  2  3  1  0
  2  4  1  0
  3  5  1  0
  4  6  1  0
  4  7  2  0
  5  8  1  0
  6  9  2  0
  7 10  1  0
  7 11  1  0
 10 12  1  0
 11 13  2  0
 11 14  1  0
 12 15  1  0
 13 16  1  0
 14 17  2  0
 15 18  2  0
 15 19  1  0
 16 20  2  0
 18 21  1  0
 19 22  2  0
 20 23  1  0
 21 24  2  0
  9 10  1  0
 17 20  1  0
 22 24  1  0
M  END
>  <MolRegNo>  (1) 
1787336

>  <m>  (1) 
=

>  <Value>  (1) 
707.95

>  <Unit>  (1) 
nM

>  <Type>  (1) 
Ki

>  <pValue>  (1) 
6.15

>  <Ligand Efficiency>  (1) 
0.35

>  <Binding Efficiency>  (1) 
19.14

>  <Surface Efficiency>  (1) 
10.79

>  <Assay Index>  (1) 
897972

>  <Assay Category>  (1) 


>  <Assay Organism>  (1) 
Homo sapiens

>  <Target ID>  (1) 
65

>  <Target Name>  (1) 
Cytochrome P450 19A1

>  <Target Organism>  (1) 
Homo sapiens

>  <Target Description>  (1) 
Target is a single protein chain

>  <Sequence Accession>  (1) 
P11511

>  <Reference>  (1) 
Bioorg Med Chem Lett 24 (18), 4586-4589 (2014)

>  <Pubmed ID>  (1) 
25155384

>  <DOI>  (1) 
10.1016/j.bmcl.2014.07.083

$$$$
