4wnv_ligand_5
     RDKit          2D

 40 43  0  0  0  0  0  0  0  0999 V2000
    0.0000   -0.0000   -0.0000 Br  0  0  0  0  0  0  0  0  0  0  0  0
    1.4823    0.0237   -0.0000 C   0  0  0  0  0  0  0  0  0  0  0  0
    2.2176   -1.2570   -0.0000 C   0  0  0  0  0  0  0  0  0  0  0  0
    2.2176    1.3400   -0.0000 C   0  0  0  0  0  0  0  0  0  0  0  0
    3.7118   -1.2452   -0.0000 C   0  0  0  0  0  0  0  0  0  0  0  0
    3.7118    1.3519   -0.0000 C   0  0  0  0  0  0  0  0  0  0  0  0
    4.4470    0.0593   -0.0000 C   0  0  0  0  0  0  0  0  0  0  0  0
    5.9294    0.0712   -0.0000 O   0  0  0  0  0  0  0  0  0  0  0  0
    6.6646   -1.2096   -0.0000 C   0  0  0  0  0  0  0  0  0  0  0  0
    8.1470   -1.1740   -0.0000 C   0  0  0  0  0  0  0  0  0  0  0  0
    8.8822   -2.4548   -0.0000 O   0  0  0  0  0  0  0  0  0  0  0  0
    8.8822    0.1304   -0.0000 C   0  0  0  0  0  0  0  0  0  0  0  0
    8.0995    1.4468   -0.0000 N   0  0  0  0  0  0  0  0  0  0  0  0
    6.5935    1.4586   -0.0000 C   0  0  0  0  0  0  0  0  0  0  0  0
    8.8348    2.7512   -0.0000 C   0  0  0  0  0  0  0  0  0  0  0  0
    5.8345    2.7631   -0.0000 C   0  0  0  0  0  0  0  0  0  0  0  0
    8.0758    4.0557   -0.0000 C   0  0  0  0  0  0  0  0  0  0  0  0
    6.5697    4.0675   -0.0000 N   0  0  0  0  0  0  0  0  0  0  0  0
    5.8108    5.3720   -0.0000 C   0  0  0  0  0  0  0  0  0  0  0  0
    4.3047    5.3839   -0.0000 C   0  0  0  0  0  0  0  0  0  0  0  0
    6.5460    6.6883   -0.0000 C   0  0  0  0  0  0  0  0  0  0  0  0
    3.5458    4.1031   -0.0000 C   0  0  0  0  0  0  0  0  0  0  0  0
    3.5458    6.7002   -0.0000 C   0  0  0  0  0  0  0  0  0  0  0  0
    5.7871    7.9928   -0.0000 N   0  0  0  0  0  0  0  0  0  0  0  0
    2.0278    4.1150   -0.0000 C   0  0  0  0  0  0  0  0  0  0  0  0
    2.0278    6.7120   -0.0000 C   0  0  0  0  0  0  0  0  0  0  0  0
    4.2810    8.0046   -0.0000 S   0  0  0  0  0  0  0  0  0  0  0  0
    1.2689    5.4194   -0.0000 C   0  0  0  0  0  0  0  0  0  0  0  0
    2.7749    8.0165   -0.0000 O   0  0  0  0  0  0  0  0  0  0  0  0
    4.2691    6.5223   -0.0000 O   0  0  0  0  0  0  0  0  0  0  0  0
    4.2691    9.5107   -0.0000 C   0  0  0  0  0  0  0  0  0  0  0  0
    2.9647   10.2697   -0.0000 C   0  0  0  0  0  0  0  0  0  0  0  0
    5.5499   10.2697   -0.0000 C   0  0  0  0  0  0  0  0  0  0  0  0
    1.6484    9.5107   -0.0000 O   0  0  0  0  0  0  0  0  0  0  0  0
    2.9528   11.7757   -0.0000 C   0  0  0  0  0  0  0  0  0  0  0  0
    5.5380   11.7757   -0.0000 C   0  0  0  0  0  0  0  0  0  0  0  0
    1.6484    8.0284   -0.0000 C   0  0  0  0  0  0  0  0  0  0  0  0
    4.2336   12.5347   -0.0000 C   0  0  0  0  0  0  0  0  0  0  0  0
    6.8306   12.5465   -0.0000 O   0  0  0  0  0  0  0  0  0  0  0  0
    8.1232   11.8113   -0.0000 C   0  0  0  0  0  0  0  0  0  0  0  0
  1  2  1  0
  2  3  2  0
  2  4  1  0
  3  5  1  0
  4  6  2  0
  5  7  2  0
  7  8  1  0
  8  9  1  0
  9 10  1  0
 10 11  1  0
 10 12  1  0
 12 13  1  0
 13 14  1  0
 13 15  1  0
 14 16  1  0
 15 17  1  0
 16 18  1  0
 18 19  1  0
 19 20  1  0
 19 21  1  0
 20 22  2  0
 20 23  1  0
 21 24  1  0
 22 25  1  0
 23 26  2  0
 24 27  1  0
 25 28  2  0
 27 29  2  0
 27 30  2  0
 27 31  1  0
 31 32  2  0
 31 33  1  0
 32 34  1  0
 32 35  1  0
 33 36  2  0
 34 37  1  0
 35 38  2  0
 36 39  1  0
 39 40  1  0
  6  7  1  0
 17 18  1  0
 26 28  1  0
 36 38  1  0
M  END
>  <MolRegNo>  (1) 
96999

>  <m>  (1) 
=

>  <Value>  (1) 
30000

>  <Unit>  (1) 
nM

>  <Type>  (1) 
Ki

>  <pValue>  (1) 
4.52

>  <Ligand Efficiency>  (1) 
0

>  <Binding Efficiency>  (1) 
0

>  <Surface Efficiency>  (1) 
0

>  <Assay Index>  (1) 
51650

>  <Assay Category>  (1) 


>  <Assay Organism>  (1) 


>  <Target ID>  (1) 
11365

>  <Target Name>  (1) 
Cytochrome P450 2D6

>  <Target Organism>  (1) 
Homo sapiens

>  <Target Description>  (1) 
Target is a single protein chain

>  <Sequence Accession>  (1) 
P10635

>  <Reference>  (1) 
Bioorg Med Chem Lett 14 (9), 2025-2030 (2004)

>  <Pubmed ID>  (1) 
15080972

>  <DOI>  (1) 
10.1016/j.bmcl.2004.02.078

$$$$
