4wnv_ligand_175
     RDKit          2D

 25 27  0  0  0  0  0  0  0  0999 V2000
    0.0000   -0.0000   -0.0000 Br  0  0  0  0  0  0  0  0  0  0  0  0
    1.2853    0.7617   -0.0000 C   0  0  0  0  0  0  0  0  0  0  0  0
    2.5706    0.0238   -0.0000 C   0  0  0  0  0  0  0  0  0  0  0  0
    1.2734    2.2850   -0.0000 C   0  0  0  0  0  0  0  0  0  0  0  0
    3.8679    0.7855   -0.0000 C   0  0  0  0  0  0  0  0  0  0  0  0
    2.5587    3.0467   -0.0000 C   0  0  0  0  0  0  0  0  0  0  0  0
    3.8560    2.3088   -0.0000 C   0  0  0  0  0  0  0  0  0  0  0  0
    5.1413    3.0824   -0.0000 C   0  0  0  0  0  0  0  0  0  0  0  0
    5.1294    4.5938   -0.0000 C   0  0  0  0  0  0  0  0  0  0  0  0
    6.4385    2.3445   -0.0000 C   0  0  0  0  0  0  0  0  0  0  0  0
    3.8084    5.3555   -0.0000 O   0  0  0  0  0  0  0  0  0  0  0  0
    6.4147    5.3555   -0.0000 C   0  0  0  0  0  0  0  0  0  0  0  0
    6.4266    0.8569   -0.0000 N   0  0  0  0  0  0  0  0  0  0  0  0
    3.7965    6.8670   -0.0000 C   0  0  0  0  0  0  0  0  0  0  0  0
    7.7000    4.6176   -0.0000 C   0  0  0  0  0  0  0  0  0  0  0  0
    6.3909    6.8551   -0.0000 C   0  0  0  0  0  0  0  0  0  0  0  0
    7.6405   -0.0000   -0.0000 N   0  0  0  0  0  0  0  0  0  0  0  0
    5.2127   -0.0119   -0.0000 C   0  0  0  0  0  0  0  0  0  0  0  0
    5.0818    7.6405   -0.0000 O   0  0  0  0  0  0  0  0  0  0  0  0
    2.4754    7.6286   -0.0000 C   0  0  0  0  0  0  0  0  0  0  0  0
    8.9854    5.3793   -0.0000 C   0  0  0  0  0  0  0  0  0  0  0  0
    7.6643    7.6286   -0.0000 C   0  0  0  0  0  0  0  0  0  0  0  0
    7.1645   -1.4162   -0.0000 N   0  0  0  0  0  0  0  0  0  0  0  0
    5.6649   -1.4281   -0.0000 C   0  0  0  0  0  0  0  0  0  0  0  0
    8.9735    6.8908   -0.0000 C   0  0  0  0  0  0  0  0  0  0  0  0
  1  2  1  0
  2  3  2  0
  2  4  1  0
  3  5  1  0
  4  6  2  0
  5  7  2  0
  7  8  1  0
  8  9  1  0
  8 10  1  1
  9 11  1  6
  9 12  1  0
 10 13  1  0
 11 14  1  0
 12 15  2  0
 12 16  1  0
 13 17  1  0
 13 18  1  0
 14 19  2  0
 14 20  1  0
 15 21  1  0
 16 22  2  0
 17 23  2  0
 18 24  2  0
 21 25  2  0
  6  7  1  0
 22 25  1  0
 23 24  1  0
M  END
>  <MolRegNo>  (1) 
1589897

>  <m>  (1) 
=

>  <Value>  (1) 
647

>  <Unit>  (1) 
nM

>  <Type>  (1) 
Ki

>  <pValue>  (1) 
6.19

>  <Ligand Efficiency>  (1) 
0.34

>  <Binding Efficiency>  (1) 
15.46

>  <Surface Efficiency>  (1) 
10.86

>  <Assay Index>  (1) 
803886

>  <Assay Category>  (1) 


>  <Assay Organism>  (1) 
Homo sapiens

>  <Target ID>  (1) 
65

>  <Target Name>  (1) 
Cytochrome P450 19A1

>  <Target Organism>  (1) 
Homo sapiens

>  <Target Description>  (1) 
Target is a single protein chain

>  <Sequence Accession>  (1) 
P11511

>  <Reference>  (1) 
Bioorg Med Chem Lett 23 (22), 6060-6063 (2013)

>  <Pubmed ID>  (1) 
24113062

>  <DOI>  (1) 
10.1016/j.bmcl.2013.09.030

$$$$
