4wnv_ligand_56
     RDKit          2D

 24 27  0  0  0  0  0  0  0  0999 V2000
    0.0000   -0.0000   -0.0000 O   0  0  0  0  0  0  0  0  0  0  0  0
    1.2532   -0.7142   -0.0000 C   0  0  0  0  0  0  0  0  0  0  0  0
   -1.2801   -0.7142   -0.0000 C   0  0  0  0  0  0  0  0  0  0  0  0
    2.5063    0.0269   -0.0000 C   0  0  0  0  0  0  0  0  0  0  0  0
    1.2397   -2.1560   -0.0000 C   0  0  0  0  0  0  0  0  0  0  0  0
    3.7595   -0.6872   -0.0000 C   0  0  0  0  0  0  0  0  0  0  0  0
    2.4929   -2.8702   -0.0000 C   0  0  0  0  0  0  0  0  0  0  0  0
    3.7460   -2.1290   -0.0000 C   0  0  0  0  0  0  0  0  0  0  0  0
    5.0127    0.0539   -0.0000 C   0  0  0  0  0  0  0  0  0  0  0  0
    4.9992   -2.8432   -0.0000 N   0  0  0  0  0  0  0  0  0  0  0  0
    6.2658   -0.6603   -0.0000 C   0  0  0  0  0  0  0  0  0  0  0  0
    4.9992    1.5227   -0.0000 C   0  0  0  0  0  0  0  0  0  0  0  0
    6.2524   -2.1021   -0.0000 C   0  0  0  0  0  0  0  0  0  0  0  0
    3.5709    1.1588   -0.0000 O   0  0  0  0  0  0  0  0  0  0  0  0
    6.2524    2.2638   -0.0000 C   0  0  0  0  0  0  0  0  0  0  0  0
    7.5055    3.0049   -0.0000 N   0  0  0  0  0  0  0  0  0  0  0  0
    7.2765    1.2397   -0.0000 C   0  0  0  0  0  0  0  0  0  0  0  0
    9.2034    2.8702   -0.0000 C   0  0  0  0  0  0  0  0  0  0  0  0
    7.4921    4.4737   -0.0000 C   0  0  0  0  0  0  0  0  0  0  0  0
    8.5296    1.9808   -0.0000 C   0  0  0  0  0  0  0  0  0  0  0  0
    9.9176    1.6170   -0.0000 C   0  0  0  0  0  0  0  0  0  0  0  0
    8.9339    4.4872   -0.0000 C   0  0  0  0  0  0  0  0  0  0  0  0
    9.9041    0.1752   -0.0000 C   0  0  0  0  0  0  0  0  0  0  0  0
   11.1572   -0.5390   -0.0000 C   0  0  0  0  0  0  0  0  0  0  0  0
  1  2  1  0
  1  3  1  0
  2  4  2  0
  2  5  1  0
  4  6  1  0
  5  7  2  0
  6  8  2  0
  6  9  1  0
  8 10  1  0
  9 11  2  0
  9 12  1  0
 10 13  2  0
 12 14  1  1
 12 15  1  0
 15 16  1  0
 15 17  1  6
 16 18  1  0
 16 19  1  0
 20 17  1  6
 18 21  1  0
 19 22  1  0
 21 23  1  6
 23 24  2  0
  7  8  1  0
 11 13  1  0
 20 21  1  0
 20 22  1  0
M  END
>  <MolRegNo>  (1) 
255947

>  <m>  (1) 
=

>  <Value>  (1) 
21000

>  <Unit>  (1) 
nM

>  <Type>  (1) 
Ki

>  <pValue>  (1) 
4.68

>  <Ligand Efficiency>  (1) 
0

>  <Binding Efficiency>  (1) 
0

>  <Surface Efficiency>  (1) 
0

>  <Assay Index>  (1) 
122804

>  <Assay Category>  (1) 


>  <Assay Organism>  (1) 
Homo sapiens

>  <Target ID>  (1) 
11365

>  <Target Name>  (1) 
Cytochrome P450 2D6

>  <Target Organism>  (1) 
Homo sapiens

>  <Target Description>  (1) 
Target is a single protein chain

>  <Sequence Accession>  (1) 
P10635

>  <Reference>  (1) 
J Med Chem 36 (9), 1136-1145 (1993)

>  <Pubmed ID>  (1) 
8487254

>  <DOI>  (1) 
10.1021/jm00061a004

$$$$
