4wnv_ligand_196
     RDKit          2D

 23 25  0  0  0  0  0  0  0  0999 V2000
    0.0000   -0.0000   -0.0000 O   0  0  0  0  0  0  0  0  0  0  0  0
    0.2249   -1.4678   -0.0000 C   0  0  0  0  0  0  0  0  0  0  0  0
   -0.9588   -2.4030   -0.0000 O   0  0  0  0  0  0  0  0  0  0  0  0
    1.6454   -1.9176   -0.0000 C   0  0  0  0  0  0  0  0  0  0  0  0
   -2.3793   -1.8466   -0.0000 C   0  0  0  0  0  0  0  0  0  0  0  0
    2.0952   -3.3381   -0.0000 N   0  0  0  0  0  0  0  0  0  0  0  0
    2.8528   -1.0180   -0.0000 C   0  0  0  0  0  0  0  0  0  0  0  0
   -3.5630   -2.7818   -0.0000 C   0  0  0  0  0  0  0  0  0  0  0  0
    3.5867   -3.3263   -0.0000 N   0  0  0  0  0  0  0  0  0  0  0  0
    4.0602   -1.8940   -0.0000 N   0  0  0  0  0  0  0  0  0  0  0  0
    2.8409    0.4972   -0.0000 C   0  0  0  0  0  0  0  0  0  0  0  0
    5.4806   -1.4205   -0.0000 C   0  0  0  0  0  0  0  0  0  0  0  0
    1.5270    1.2547   -0.0000 C   0  0  0  0  0  0  0  0  0  0  0  0
    4.1312    1.2547   -0.0000 C   0  0  0  0  0  0  0  0  0  0  0  0
    6.5815   -2.4148   -0.0000 C   0  0  0  0  0  0  0  0  0  0  0  0
    1.5152    2.7699   -0.0000 C   0  0  0  0  0  0  0  0  0  0  0  0
    4.1194    2.7699   -0.0000 C   0  0  0  0  0  0  0  0  0  0  0  0
    8.0020   -1.9413   -0.0000 C   0  0  0  0  0  0  0  0  0  0  0  0
    6.2619   -3.8708   -0.0000 C   0  0  0  0  0  0  0  0  0  0  0  0
    2.8054    3.5275   -0.0000 C   0  0  0  0  0  0  0  0  0  0  0  0
    9.1028   -2.9356   -0.0000 C   0  0  0  0  0  0  0  0  0  0  0  0
    7.3628   -4.8651   -0.0000 C   0  0  0  0  0  0  0  0  0  0  0  0
    8.7832   -4.3916   -0.0000 C   0  0  0  0  0  0  0  0  0  0  0  0
  1  2  2  0
  2  3  1  0
  2  4  1  0
  3  5  1  0
  4  6  1  0
  4  7  2  0
  5  8  1  0
  6  9  2  0
  7 10  1  0
  7 11  1  0
 10 12  1  0
 11 13  2  0
 11 14  1  0
 12 15  1  0
 13 16  1  0
 14 17  2  0
 15 18  2  0
 15 19  1  0
 16 20  2  0
 18 21  1  0
 19 22  2  0
 21 23  2  0
  9 10  1  0
 17 20  1  0
 22 23  1  0
M  END
>  <MolRegNo>  (1) 
1787333

>  <m>  (1) 
=

>  <Value>  (1) 
1410

>  <Unit>  (1) 
nM

>  <Type>  (1) 
Ki

>  <pValue>  (1) 
5.85

>  <Ligand Efficiency>  (1) 
0.35

>  <Binding Efficiency>  (1) 
19.04

>  <Surface Efficiency>  (1) 
10.26

>  <Assay Index>  (1) 
897973

>  <Assay Category>  (1) 


>  <Assay Organism>  (1) 
Homo sapiens

>  <Target ID>  (1) 
65

>  <Target Name>  (1) 
Cytochrome P450 19A1

>  <Target Organism>  (1) 
Homo sapiens

>  <Target Description>  (1) 
Target is a single protein chain

>  <Sequence Accession>  (1) 
P11511

>  <Reference>  (1) 
Bioorg Med Chem Lett 24 (18), 4586-4589 (2014)

>  <Pubmed ID>  (1) 
25155384

>  <DOI>  (1) 
10.1016/j.bmcl.2014.07.083

$$$$
