4wnv_ligand_19
     RDKit          2D

 40 43  0  0  0  0  0  0  0  0999 V2000
    0.0000   -0.0000   -0.0000 O   0  0  0  0  0  0  0  0  0  0  0  0
   -0.0119   -1.4978   -0.0000 C   0  0  0  0  0  0  0  0  0  0  0  0
    1.2719   -2.2348   -0.0000 N   0  0  0  0  0  0  0  0  0  0  0  0
   -1.3195   -2.2348   -0.0000 C   0  0  0  0  0  0  0  0  0  0  0  0
    2.5558   -1.4740   -0.0000 C   0  0  0  0  0  0  0  0  0  0  0  0
   -1.3314   -3.7207   -0.0000 N   0  0  0  0  0  0  0  0  0  0  0  0
   -2.6271   -1.4740   -0.0000 C   0  0  0  0  0  0  0  0  0  0  0  0
    2.5439    0.0475   -0.0000 C   0  0  0  0  0  0  0  0  0  0  0  0
   -2.6390   -4.4577   -0.0000 C   0  0  0  0  0  0  0  0  0  0  0  0
   -0.0475   -4.4577   -0.0000 C   0  0  0  0  0  0  0  0  0  0  0  0
   -2.6390    0.0475   -0.0000 C   0  0  0  0  0  0  0  0  0  0  0  0
   -3.9466   -2.2110   -0.0000 C   0  0  0  0  0  0  0  0  0  0  0  0
    3.8396    0.8083   -0.0000 C   0  0  0  0  0  0  0  0  0  0  0  0
    1.2363    0.8083   -0.0000 C   0  0  0  0  0  0  0  0  0  0  0  0
   -2.6509   -5.9437   -0.0000 C   0  0  0  0  0  0  0  0  0  0  0  0
   -0.0594   -5.9437   -0.0000 C   0  0  0  0  0  0  0  0  0  0  0  0
   -3.9466    0.8083   -0.0000 C   0  0  0  0  0  0  0  0  0  0  0  0
   -5.2542   -1.4503   -0.0000 C   0  0  0  0  0  0  0  0  0  0  0  0
    3.8277    2.3180   -0.0000 C   0  0  0  0  0  0  0  0  0  0  0  0
    1.2244    2.3180   -0.0000 C   0  0  0  0  0  0  0  0  0  0  0  0
   -1.3670   -6.6807   -0.0000 N   0  0  0  0  0  0  0  0  0  0  0  0
   -5.2661    0.0713   -0.0000 C   0  0  0  0  0  0  0  0  0  0  0  0
    2.5082    3.0788   -0.0000 C   0  0  0  0  0  0  0  0  0  0  0  0
   -1.3789   -8.1666   -0.0000 C   0  0  0  0  0  0  0  0  0  0  0  0
   -6.5856    0.8321   -0.0000 O   0  0  0  0  0  0  0  0  0  0  0  0
    2.4963    4.5885   -0.0000 O   0  0  0  0  0  0  0  0  0  0  0  0
   -0.0951   -8.9036   -0.0000 C   0  0  0  0  0  0  0  0  0  0  0  0
   -7.9051    0.0951   -0.0000 C   0  0  0  0  0  0  0  0  0  0  0  0
    3.7802    5.3374   -0.0000 C   0  0  0  0  0  0  0  0  0  0  0  0
    1.1887   -8.1428   -0.0000 O   0  0  0  0  0  0  0  0  0  0  0  0
   -0.1070  -10.4014   -0.0000 C   0  0  0  0  0  0  0  0  0  0  0  0
    1.1768  -11.1265   -0.0000 O   0  0  0  0  0  0  0  0  0  0  0  0
    1.1650  -12.6243   -0.0000 C   0  0  0  0  0  0  0  0  0  0  0  0
   -0.1426  -13.3613   -0.0000 C   0  0  0  0  0  0  0  0  0  0  0  0
    2.4488  -13.3613   -0.0000 C   0  0  0  0  0  0  0  0  0  0  0  0
   -0.1545  -14.8472   -0.0000 C   0  0  0  0  0  0  0  0  0  0  0  0
   -1.4621  -12.5887   -0.0000 C   0  0  0  0  0  0  0  0  0  0  0  0
    2.4369  -14.8472   -0.0000 C   0  0  0  0  0  0  0  0  0  0  0  0
    3.7445  -12.5887   -0.0000 C   0  0  0  0  0  0  0  0  0  0  0  0
    1.1293  -15.5843   -0.0000 C   0  0  0  0  0  0  0  0  0  0  0  0
  1  2  2  0
  2  3  1  0
  2  4  1  0
  3  5  1  0
  4  6  1  0
  4  7  1  0
  5  8  1  0
  6  9  1  0
  6 10  1  0
  7 11  2  0
  7 12  1  0
  8 13  2  0
  8 14  1  0
  9 15  1  0
 10 16  1  0
 11 17  1  0
 12 18  2  0
 13 19  1  0
 14 20  2  0
 15 21  1  0
 17 22  2  0
 19 23  2  0
 21 24  1  0
 22 25  1  0
 23 26  1  0
 24 27  1  0
 25 28  1  0
 26 29  1  0
 27 30  1  0
 27 31  1  0
 31 32  1  0
 32 33  1  0
 33 34  2  0
 33 35  1  0
 34 36  1  0
 34 37  1  0
 35 38  2  0
 35 39  1  0
 36 40  2  0
 16 21  1  0
 18 22  1  0
 20 23  1  0
 38 40  1  0
M  END
>  <MolRegNo>  (1) 
96973

>  <m>  (1) 
=

>  <Value>  (1) 
5000

>  <Unit>  (1) 
nM

>  <Type>  (1) 
Ki

>  <pValue>  (1) 
5.3

>  <Ligand Efficiency>  (1) 
0

>  <Binding Efficiency>  (1) 
0

>  <Surface Efficiency>  (1) 
0

>  <Assay Index>  (1) 
51650

>  <Assay Category>  (1) 


>  <Assay Organism>  (1) 


>  <Target ID>  (1) 
11365

>  <Target Name>  (1) 
Cytochrome P450 2D6

>  <Target Organism>  (1) 
Homo sapiens

>  <Target Description>  (1) 
Target is a single protein chain

>  <Sequence Accession>  (1) 
P10635

>  <Reference>  (1) 
Bioorg Med Chem Lett 14 (9), 2025-2030 (2004)

>  <Pubmed ID>  (1) 
15080972

>  <DOI>  (1) 
10.1016/j.bmcl.2004.02.078

$$$$
