4wnv_ligand_74
     RDKit          2D

 26 30  0  0  1  0  0  0  0  0999 V2000
    0.0000   -0.0000   -0.0000 O   0  0  0  0  0  0  0  0  0  0  0  0
    1.4779    0.1537   -0.0000 C   0  0  0  0  0  0  0  0  0  0  0  0
    2.3174   -1.0405   -0.0000 O   0  0  0  0  0  0  0  0  0  0  0  0
    2.0691    1.5134   -0.0000 C   0  0  0  0  0  0  0  0  0  0  0  0
    1.7026   -2.4002   -0.0000 C   0  0  0  0  0  0  0  0  0  0  0  0
    3.5589    1.6789   -0.0000 C   0  0  0  0  0  0  0  0  0  0  0  0
    1.1824    2.7431   -0.0000 C   0  0  0  0  0  0  0  0  0  0  0  0
    4.4102    0.4729   -0.0000 O   0  0  0  0  0  0  0  0  0  0  0  0
    4.1619    3.0623   -0.0000 C   0  0  0  0  0  0  0  0  0  0  0  0
    1.7972    4.1264   -0.0000 C   0  0  0  0  0  0  0  0  0  0  0  0
   -0.2956    2.6130   -0.0000 C   0  0  0  0  0  0  0  0  0  0  0  0
    3.2751    4.2919   -0.0000 C   0  0  0  0  0  0  0  0  0  0  0  0
    0.9104    5.3679   -0.0000 C   0  0  0  0  0  0  0  0  0  0  0  0
   -1.1824    3.8308   -0.0000 C   0  0  0  0  0  0  0  0  0  0  0  0
   -0.5912    5.2142   -0.0000 N   0  0  0  0  0  0  0  0  0  0  0  0
   -2.6603    3.6889   -0.0000 C   0  0  0  0  0  0  0  0  0  0  0  0
   -1.4898    6.4320   -0.0000 C   0  0  0  0  0  0  0  0  0  0  0  0
   -3.5471    2.4948   -0.0000 N   0  0  0  0  0  0  0  0  0  0  0  0
   -3.5707    4.9068   -0.0000 C   0  0  0  0  0  0  0  0  0  0  0  0
   -2.9914    6.2901   -0.0000 C   0  0  0  0  0  0  0  0  0  0  0  0
   -4.9777    2.9559   -0.0000 C   0  0  0  0  0  0  0  0  0  0  0  0
   -4.9895    4.4457   -0.0000 C   0  0  0  0  0  0  0  0  0  0  0  0
   -6.3020    2.2110   -0.0000 C   0  0  0  0  0  0  0  0  0  0  0  0
   -6.3020    5.2024   -0.0000 C   0  0  0  0  0  0  0  0  0  0  0  0
   -7.6025    2.9677   -0.0000 C   0  0  0  0  0  0  0  0  0  0  0  0
   -7.6025    4.4693   -0.0000 C   0  0  0  0  0  0  0  0  0  0  0  0
  1  2  2  0
  2  3  1  0
  4  2  1  6
  3  5  1  0
  4  6  1  0
  4  7  1  0
  6  8  1  1
  6  9  1  0
  7 10  1  0
  7 11  1  1
  9 12  1  0
 10 13  1  6
 14 11  1  1
 13 15  1  0
 14 16  1  0
 15 17  1  0
 16 18  1  0
 16 19  2  0
 17 20  1  0
 18 21  1  0
 19 22  1  0
 21 23  2  0
 22 24  2  0
 23 25  1  0
 24 26  1  0
 10 12  1  0
 14 15  1  0
 19 20  1  0
 21 22  1  0
 25 26  2  0
M  END
>  <MolRegNo>  (1) 
1363786

>  <m>  (1) 
=

>  <Value>  (1) 
31

>  <Unit>  (1) 
nM

>  <Type>  (1) 
Ki

>  <pValue>  (1) 
7.51

>  <Ligand Efficiency>  (1) 
0

>  <Binding Efficiency>  (1) 
0

>  <Surface Efficiency>  (1) 
0

>  <Assay Index>  (1) 
122804

>  <Assay Category>  (1) 


>  <Assay Organism>  (1) 
Homo sapiens

>  <Target ID>  (1) 
11365

>  <Target Name>  (1) 
Cytochrome P450 2D6

>  <Target Organism>  (1) 
Homo sapiens

>  <Target Description>  (1) 
Target is a single protein chain

>  <Sequence Accession>  (1) 
P10635

>  <Reference>  (1) 
J Med Chem 36 (9), 1136-1145 (1993)

>  <Pubmed ID>  (1) 
8487254

>  <DOI>  (1) 
10.1021/jm00061a004

$$$$
