4wnv_ligand_346
     RDKit          2D

 24 27  0  0  0  0  0  0  0  0999 V2000
    0.0000   -0.0000   -0.0000 O   0  0  0  0  0  0  0  0  0  0  0  0
    1.0593    0.6315   -0.0000 C   0  0  0  0  0  0  0  0  0  0  0  0
    2.3223   -0.1019   -0.0000 C   0  0  0  0  0  0  0  0  0  0  0  0
    1.0389    2.1389   -0.0000 C   0  0  0  0  0  0  0  0  0  0  0  0
    3.5853    0.6926   -0.0000 C   0  0  0  0  0  0  0  0  0  0  0  0
    2.2815    2.8927   -0.0000 C   0  0  0  0  0  0  0  0  0  0  0  0
    3.5649    2.2001   -0.0000 C   0  0  0  0  0  0  0  0  0  0  0  0
    4.8686   -0.0407   -0.0000 C   0  0  0  0  0  0  0  0  0  0  0  0
    4.8279    2.9538   -0.0000 C   0  0  0  0  0  0  0  0  0  0  0  0
    2.2204    1.4463   -0.0000 C   0  0  0  0  0  0  0  0  0  0  0  0
    6.1316    0.7537   -0.0000 C   0  0  0  0  0  0  0  0  0  0  0  0
    6.0909    2.2612   -0.0000 C   0  0  0  0  0  0  0  0  0  0  0  0
    4.7872    4.4816   -0.0000 C   0  0  0  0  0  0  0  0  0  0  0  0
    0.8556    2.2204   -0.0000 N   0  0  0  0  0  0  0  0  0  0  0  0
    7.3539    3.0149   -0.0000 C   0  0  0  0  0  0  0  0  0  0  0  0
    6.0501    5.2557   -0.0000 C   0  0  0  0  0  0  0  0  0  0  0  0
   -0.4889    1.4667   -0.0000 N   0  0  0  0  0  0  0  0  0  0  0  0
    7.3335    4.5223   -0.0000 C   0  0  0  0  0  0  0  0  0  0  0  0
    9.9206    3.0149   -0.0000 C   0  0  0  0  0  0  0  0  0  0  0  0
   -1.5686    0.8556   -0.0000 N   0  0  0  0  0  0  0  0  0  0  0  0
    8.5965    5.3168   -0.0000 C   0  0  0  0  0  0  0  0  0  0  0  0
    7.3131    5.7853   -0.0000 C   0  0  0  0  0  0  0  0  0  0  0  0
    9.9002    4.5631   -0.0000 C   0  0  0  0  0  0  0  0  0  0  0  0
    8.5761    6.5798   -0.0000 O   0  0  0  0  0  0  0  0  0  0  0  0
  1  2  2  0
  2  3  1  0
  2  4  1  0
  3  5  2  0
  4  6  1  0
  5  7  1  0
  5  8  1  0
  7  9  1  0
  7 10  1  6
  8 11  1  0
  9 12  1  0
  9 13  1  6
 10 14  1  0
 12 15  1  0
 13 16  1  0
 14 17  2  0
 15 18  1  0
 15 19  1  6
 17 20  2  0
 18 21  1  0
 18 22  1  6
 19 23  1  0
 21 24  2  0
  6  7  1  0
 12 11  1  1
 16 18  1  0
 21 23  1  0
M  CHG  2  17   1  20  -1
M  END
>  <MolRegNo>  (1) 
2058092

>  <m>  (1) 
=

>  <Value>  (1) 
5

>  <Unit>  (1) 
nM

>  <Type>  (1) 
Ki

>  <pValue>  (1) 
8.3

>  <Ligand Efficiency>  (1) 
0.47

>  <Binding Efficiency>  (1) 
25.35

>  <Surface Efficiency>  (1) 
10.01

>  <Assay Index>  (1) 
985549

>  <Assay Category>  (1) 


>  <Assay Organism>  (1) 
Homo sapiens

>  <Target ID>  (1) 
65

>  <Target Name>  (1) 
Cytochrome P450 19A1

>  <Target Organism>  (1) 
Homo sapiens

>  <Target Description>  (1) 
Target is a single protein chain

>  <Sequence Accession>  (1) 
P11511

>  <Reference>  (1) 


>  <Pubmed ID>  (1) 
26469743

>  <DOI>  (1) 
10.1016/j.ejmech.2015.09.038

$$$$
