4wnv_ligand_99
     RDKit          2D

 21 24  0  0  1  0  0  0  0  0999 V2000
    0.0000   -0.0000   -0.0000 O   0  0  0  0  0  0  0  0  0  0  0  0
    1.2856    0.7678   -0.0000 C   0  0  0  0  0  0  0  0  0  0  0  0
    2.5713    0.0357   -0.0000 C   0  0  0  0  0  0  0  0  0  0  0  0
    1.2678    2.2856   -0.0000 C   0  0  0  0  0  0  0  0  0  0  0  0
    3.8390    0.8035   -0.0000 C   0  0  0  0  0  0  0  0  0  0  0  0
    2.5534    3.0712   -0.0000 C   0  0  0  0  0  0  0  0  0  0  0  0
    3.8390    2.3213   -0.0000 C   0  0  0  0  0  0  0  0  0  0  0  0
    5.1247    0.0714   -0.0000 C   0  0  0  0  0  0  0  0  0  0  0  0
    5.1247    3.0891   -0.0000 C   0  0  0  0  0  0  0  0  0  0  0  0
    3.8033    3.8390   -0.0000 C   0  0  0  0  0  0  0  0  0  0  0  0
    6.4281    0.8392   -0.0000 C   0  0  0  0  0  0  0  0  0  0  0  0
    6.3924    2.3391   -0.0000 C   0  0  0  0  0  0  0  0  0  0  0  0
    5.1068    4.6068   -0.0000 C   0  0  0  0  0  0  0  0  0  0  0  0
    7.7138    3.2676   -0.0000 C   0  0  0  0  0  0  0  0  0  0  0  0
    6.4103    5.3568   -0.0000 C   0  0  0  0  0  0  0  0  0  0  0  0
    7.6959    4.6068   -0.0000 C   0  0  0  0  0  0  0  0  0  0  0  0
    9.9636    3.2855   -0.0000 C   0  0  0  0  0  0  0  0  0  0  0  0
    8.8208    5.2854   -0.0000 C   0  0  0  0  0  0  0  0  0  0  0  0
    7.6781    6.1246   -0.0000 C   0  0  0  0  0  0  0  0  0  0  0  0
    9.9458    4.6247   -0.0000 O   0  0  0  0  0  0  0  0  0  0  0  0
    8.8030    6.6246   -0.0000 O   0  0  0  0  0  0  0  0  0  0  0  0
  1  2  2  0
  2  3  1  0
  2  4  1  0
  3  5  2  0
  4  6  2  0
  5  7  1  0
  5  8  1  0
  7  9  1  0
  7 10  1  1
  8 11  1  0
  9 12  1  0
  9 13  1  1
 12 14  1  0
 13 15  1  0
 14 16  1  0
 14 17  1  1
 16 18  1  0
 16 19  1  1
 17 20  1  0
 18 21  2  0
  6  7  1  0
 12 11  1  6
 15 16  1  0
 18 20  1  0
M  END
>  <MolRegNo>  (1) 
1595382

>  <m>  (1) 
=

>  <Value>  (1) 
390

>  <Unit>  (1) 
nM

>  <Type>  (1) 
Ki

>  <pValue>  (1) 
6.41

>  <Ligand Efficiency>  (1) 
0.42

>  <Binding Efficiency>  (1) 
22.38

>  <Surface Efficiency>  (1) 
14.78

>  <Assay Index>  (1) 
50795

>  <Assay Category>  (1) 


>  <Assay Organism>  (1) 


>  <Target ID>  (1) 
65

>  <Target Name>  (1) 
Cytochrome P450 19A1

>  <Target Organism>  (1) 
Homo sapiens

>  <Target Description>  (1) 
Target is a single protein chain

>  <Sequence Accession>  (1) 
P11511

>  <Reference>  (1) 
J Med Chem 33 (11), 2933-2942 (1990)

>  <Pubmed ID>  (1) 
2231592

>  <DOI>  (1) 
10.1021/jm00173a001

$$$$
