4wnv_ligand_11
     RDKit          2D

 36 39  0  0  0  0  0  0  0  0999 V2000
    0.0000   -0.0000   -0.0000 O   0  0  0  0  0  0  0  0  0  0  0  0
   -0.0119   -1.4916   -0.0000 C   0  0  0  0  0  0  0  0  0  0  0  0
   -1.3245   -2.2314   -0.0000 N   0  0  0  0  0  0  0  0  0  0  0  0
    1.2768   -2.2314   -0.0000 C   0  0  0  0  0  0  0  0  0  0  0  0
   -2.6371   -1.4677   -0.0000 C   0  0  0  0  0  0  0  0  0  0  0  0
   -1.3365   -3.7230   -0.0000 C   0  0  0  0  0  0  0  0  0  0  0  0
    1.2649   -3.7349   -0.0000 C   0  0  0  0  0  0  0  0  0  0  0  0
    2.5774   -1.4677   -0.0000 C   0  0  0  0  0  0  0  0  0  0  0  0
   -2.6490    0.0477   -0.0000 C   0  0  0  0  0  0  0  0  0  0  0  0
   -3.9616   -2.2075   -0.0000 C   0  0  0  0  0  0  0  0  0  0  0  0
   -0.0477   -4.4628   -0.0000 C   0  0  0  0  0  0  0  0  0  0  0  0
   -2.6490   -4.4628   -0.0000 C   0  0  0  0  0  0  0  0  0  0  0  0
    2.5536   -4.4747   -0.0000 C   0  0  0  0  0  0  0  0  0  0  0  0
    3.8662   -2.2075   -0.0000 C   0  0  0  0  0  0  0  0  0  0  0  0
   -3.9616    0.8114   -0.0000 C   0  0  0  0  0  0  0  0  0  0  0  0
   -5.2742   -1.4438   -0.0000 C   0  0  0  0  0  0  0  0  0  0  0  0
   -0.0597   -5.9663   -0.0000 C   0  0  0  0  0  0  0  0  0  0  0  0
   -2.6610   -5.9663   -0.0000 C   0  0  0  0  0  0  0  0  0  0  0  0
    3.8542   -3.7110   -0.0000 C   0  0  0  0  0  0  0  0  0  0  0  0
   -5.2861    0.0716   -0.0000 C   0  0  0  0  0  0  0  0  0  0  0  0
   -1.3723   -6.7061   -0.0000 N   0  0  0  0  0  0  0  0  0  0  0  0
    5.1549   -4.4628   -0.0000 O   0  0  0  0  0  0  0  0  0  0  0  0
   -1.3842   -8.1977   -0.0000 C   0  0  0  0  0  0  0  0  0  0  0  0
    5.1430   -5.9663   -0.0000 C   0  0  0  0  0  0  0  0  0  0  0  0
   -0.0955   -8.9375   -0.0000 C   0  0  0  0  0  0  0  0  0  0  0  0
    1.1933   -8.1738   -0.0000 O   0  0  0  0  0  0  0  0  0  0  0  0
   -0.1074  -10.4291   -0.0000 C   0  0  0  0  0  0  0  0  0  0  0  0
    1.1813  -11.1689   -0.0000 O   0  0  0  0  0  0  0  0  0  0  0  0
    1.1694  -12.6605   -0.0000 C   0  0  0  0  0  0  0  0  0  0  0  0
    2.4581  -13.4003   -0.0000 C   0  0  0  0  0  0  0  0  0  0  0  0
   -0.1432  -13.4003   -0.0000 C   0  0  0  0  0  0  0  0  0  0  0  0
    2.4462  -14.9038   -0.0000 C   0  0  0  0  0  0  0  0  0  0  0  0
   -0.1551  -14.9038   -0.0000 C   0  0  0  0  0  0  0  0  0  0  0  0
    1.1336  -15.6437   -0.0000 C   0  0  0  0  0  0  0  0  0  0  0  0
    1.1336  -17.1352   -0.0000 O   0  0  0  0  0  0  0  0  0  0  0  0
    2.4223  -17.8631   -0.0000 C   0  0  0  0  0  0  0  0  0  0  0  0
  1  2  2  0
  2  3  1  0
  2  4  1  0
  3  5  1  0
  3  6  1  0
  4  7  2  0
  4  8  1  0
  5  9  2  0
  5 10  1  0
  6 11  1  0
  6 12  1  0
  7 13  1  0
  8 14  2  0
  9 15  1  0
 10 16  2  0
 11 17  1  0
 12 18  1  0
 13 19  2  0
 15 20  2  0
 17 21  1  0
 19 22  1  0
 21 23  1  0
 22 24  1  0
 23 25  1  0
 25 26  1  0
 25 27  1  0
 27 28  1  0
 28 29  1  0
 29 30  2  0
 29 31  1  0
 30 32  1  0
 31 33  2  0
 32 34  2  0
 34 35  1  0
 35 36  1  0
 14 19  1  0
 16 20  1  0
 18 21  1  0
 33 34  1  0
M  END
>  <MolRegNo>  (1) 
96490

>  <m>  (1) 
=

>  <Value>  (1) 
700

>  <Unit>  (1) 
nM

>  <Type>  (1) 
Ki

>  <pValue>  (1) 
6.16

>  <Ligand Efficiency>  (1) 
0

>  <Binding Efficiency>  (1) 
0

>  <Surface Efficiency>  (1) 
0

>  <Assay Index>  (1) 
51650

>  <Assay Category>  (1) 


>  <Assay Organism>  (1) 


>  <Target ID>  (1) 
11365

>  <Target Name>  (1) 
Cytochrome P450 2D6

>  <Target Organism>  (1) 
Homo sapiens

>  <Target Description>  (1) 
Target is a single protein chain

>  <Sequence Accession>  (1) 
P10635

>  <Reference>  (1) 
Bioorg Med Chem Lett 14 (9), 2025-2030 (2004)

>  <Pubmed ID>  (1) 
15080972

>  <DOI>  (1) 
10.1016/j.bmcl.2004.02.078

$$$$
