4wnv_ligand_214
     RDKit          2D

 23 26  0  0  0  0  0  0  0  0999 V2000
    0.0000   -0.0000   -0.0000 O   0  0  0  0  0  0  0  0  0  0  0  0
    1.0676    0.6365   -0.0000 C   0  0  0  0  0  0  0  0  0  0  0  0
    1.0471    2.1557   -0.0000 C   0  0  0  0  0  0  0  0  0  0  0  0
    2.3405   -0.1027   -0.0000 C   0  0  0  0  0  0  0  0  0  0  0  0
   -0.3080    2.9564   -0.0000 O   0  0  0  0  0  0  0  0  0  0  0  0
    2.2995    2.9154   -0.0000 C   0  0  0  0  0  0  0  0  0  0  0  0
    3.6134    0.6980   -0.0000 C   0  0  0  0  0  0  0  0  0  0  0  0
   -0.3285    4.2294   -0.0000 C   0  0  0  0  0  0  0  0  0  0  0  0
    3.5929    2.2173   -0.0000 C   0  0  0  0  0  0  0  0  0  0  0  0
    4.9069   -0.0411   -0.0000 C   0  0  0  0  0  0  0  0  0  0  0  0
    4.8658    2.9770   -0.0000 C   0  0  0  0  0  0  0  0  0  0  0  0
    3.5518    3.4902   -0.0000 C   0  0  0  0  0  0  0  0  0  0  0  0
    6.1798    0.7596   -0.0000 C   0  0  0  0  0  0  0  0  0  0  0  0
    6.1387    2.2789   -0.0000 C   0  0  0  0  0  0  0  0  0  0  0  0
    4.8247    4.5168   -0.0000 C   0  0  0  0  0  0  0  0  0  0  0  0
    7.4116    3.0386   -0.0000 C   0  0  0  0  0  0  0  0  0  0  0  0
    6.0977    5.2970   -0.0000 C   0  0  0  0  0  0  0  0  0  0  0  0
    7.3911    4.5578   -0.0000 C   0  0  0  0  0  0  0  0  0  0  0  0
    9.9985    3.0386   -0.0000 C   0  0  0  0  0  0  0  0  0  0  0  0
    8.6640    5.3585   -0.0000 C   0  0  0  0  0  0  0  0  0  0  0  0
    7.3706    5.8308   -0.0000 C   0  0  0  0  0  0  0  0  0  0  0  0
    9.9780    4.5989   -0.0000 C   0  0  0  0  0  0  0  0  0  0  0  0
    8.6435    6.6315   -0.0000 O   0  0  0  0  0  0  0  0  0  0  0  0
  1  2  2  0
  2  3  1  0
  2  4  1  0
  3  5  1  0
  3  6  2  0
  4  7  2  0
  5  8  1  0
  6  9  1  0
  7 10  1  0
  9 11  1  0
  9 12  1  1
 10 13  1  0
 11 14  1  0
 11 15  1  1
 14 16  1  0
 15 17  1  0
 16 18  1  0
 16 19  1  1
 18 20  1  0
 18 21  1  1
 19 22  1  0
 20 23  2  0
  7  9  1  0
 14 13  1  6
 17 18  1  0
 20 22  1  0
M  END
>  <MolRegNo>  (1) 
2057812

>  <m>  (1) 
=

>  <Value>  (1) 
95

>  <Unit>  (1) 
nM

>  <Type>  (1) 
Ki

>  <pValue>  (1) 
7.02

>  <Ligand Efficiency>  (1) 
0.42

>  <Binding Efficiency>  (1) 
22.33

>  <Surface Efficiency>  (1) 
16.19

>  <Assay Index>  (1) 
985353

>  <Assay Category>  (1) 


>  <Assay Organism>  (1) 
Homo sapiens

>  <Target ID>  (1) 
65

>  <Target Name>  (1) 
Cytochrome P450 19A1

>  <Target Organism>  (1) 
Homo sapiens

>  <Target Description>  (1) 
Target is a single protein chain

>  <Sequence Accession>  (1) 
P11511

>  <Reference>  (1) 


>  <Pubmed ID>  (1) 
26469743

>  <DOI>  (1) 
10.1016/j.ejmech.2015.09.038

$$$$
