4wnv_ligand_374
     RDKit          2D

 21 24  0  0  0  0  0  0  0  0999 V2000
    0.0000   -0.0000   -0.0000 O   0  0  0  0  0  0  0  0  0  0  0  0
    0.0000   -1.2261   -0.0000 C   0  0  0  0  0  0  0  0  0  0  0  0
   -1.3103   -1.9835   -0.0000 C   0  0  0  0  0  0  0  0  0  0  0  0
    1.2862   -1.9714   -0.0000 C   0  0  0  0  0  0  0  0  0  0  0  0
   -1.3223   -3.4621   -0.0000 C   0  0  0  0  0  0  0  0  0  0  0  0
   -2.6086   -1.2141   -0.0000 C   0  0  0  0  0  0  0  0  0  0  0  0
   -1.3223   -0.7333   -0.0000 C   0  0  0  0  0  0  0  0  0  0  0  0
    1.2742   -3.4861   -0.0000 C   0  0  0  0  0  0  0  0  0  0  0  0
   -2.6206   -4.1833   -0.0000 C   0  0  0  0  0  0  0  0  0  0  0  0
   -3.9189   -1.9594   -0.0000 C   0  0  0  0  0  0  0  0  0  0  0  0
   -3.9189   -3.4500   -0.0000 C   0  0  0  0  0  0  0  0  0  0  0  0
   -2.6086   -5.6619   -0.0000 C   0  0  0  0  0  0  0  0  0  0  0  0
   -5.2171   -4.1713   -0.0000 C   0  0  0  0  0  0  0  0  0  0  0  0
   -3.9068   -6.4192   -0.0000 C   0  0  0  0  0  0  0  0  0  0  0  0
   -5.2291   -5.6499   -0.0000 C   0  0  0  0  0  0  0  0  0  0  0  0
   -6.5515   -3.4380   -0.0000 C   0  0  0  0  0  0  0  0  0  0  0  0
   -6.5394   -6.4072   -0.0000 C   0  0  0  0  0  0  0  0  0  0  0  0
   -7.8257   -4.1593   -0.0000 C   0  0  0  0  0  0  0  0  0  0  0  0
   -7.8377   -5.6379   -0.0000 C   0  0  0  0  0  0  0  0  0  0  0  0
   -8.9076   -3.5342   -0.0000 C   0  0  0  0  0  0  0  0  0  0  0  0
   -8.9196   -6.2389   -0.0000 O   0  0  0  0  0  0  0  0  0  0  0  0
  1  2  2  0
  2  3  1  0
  2  4  1  0
  3  5  1  0
  3  6  1  0
  3  7  1  1
  4  8  1  0
  5  9  1  0
  6 10  1  0
  9 11  1  0
  9 12  1  6
 11 13  1  0
 12 14  1  0
 13 15  2  0
 13 16  1  0
 15 17  1  0
 16 18  2  0
 17 19  2  0
 18 20  1  0
 19 21  1  0
  5  8  1  1
 11 10  1  1
 14 15  1  0
 18 19  1  0
M  END
>  <MolRegNo>  (1) 
2058276

>  <m>  (1) 
=

>  <Value>  (1) 
100

>  <Unit>  (1) 
nM

>  <Type>  (1) 
Ki

>  <pValue>  (1) 
7

>  <Ligand Efficiency>  (1) 
0.46

>  <Binding Efficiency>  (1) 
24.61

>  <Surface Efficiency>  (1) 
18.77

>  <Assay Index>  (1) 
985353

>  <Assay Category>  (1) 


>  <Assay Organism>  (1) 
Homo sapiens

>  <Target ID>  (1) 
65

>  <Target Name>  (1) 
Cytochrome P450 19A1

>  <Target Organism>  (1) 
Homo sapiens

>  <Target Description>  (1) 
Target is a single protein chain

>  <Sequence Accession>  (1) 
P11511

>  <Reference>  (1) 


>  <Pubmed ID>  (1) 
26469743

>  <DOI>  (1) 
10.1016/j.ejmech.2015.09.038

$$$$
