4wnv_ligand_48
     RDKit          2D

 21 23  0  0  0  0  0  0  0  0999 V2000
    0.0000   -0.0000   -0.0000 N   0  0  0  0  0  0  0  0  0  0  0  0
   -1.5365    0.0120   -0.0000 C   0  0  0  0  0  0  0  0  0  0  0  0
    0.7322   -1.2724   -0.0000 C   0  0  0  0  0  0  0  0  0  0  0  0
    0.7322    1.3204   -0.0000 C   0  0  0  0  0  0  0  0  0  0  0  0
   -1.5485   -1.4765   -0.0000 C   0  0  0  0  0  0  0  0  0  0  0  0
   -1.5485    1.5485   -0.0000 C   0  0  0  0  0  0  0  0  0  0  0  0
    2.2447   -1.2604   -0.0000 C   0  0  0  0  0  0  0  0  0  0  0  0
    2.2447    1.3444   -0.0000 C   0  0  0  0  0  0  0  0  0  0  0  0
    2.9889    0.0360   -0.0000 C   0  0  0  0  0  0  0  0  0  0  0  0
    4.0573    1.1404   -0.0000 C   0  0  0  0  0  0  0  0  0  0  0  0
    4.0453   -0.9843   -0.0000 C   0  0  0  0  0  0  0  0  0  0  0  0
    3.9612    2.6648   -0.0000 C   0  0  0  0  0  0  0  0  0  0  0  0
    5.3657    0.4802   -0.0000 C   0  0  0  0  0  0  0  0  0  0  0  0
    5.2817   -0.1080   -0.0000 C   0  0  0  0  0  0  0  0  0  0  0  0
    4.1773   -2.4608   -0.0000 C   0  0  0  0  0  0  0  0  0  0  0  0
    5.1976    3.4811   -0.0000 C   0  0  0  0  0  0  0  0  0  0  0  0
    6.6141    1.3204   -0.0000 C   0  0  0  0  0  0  0  0  0  0  0  0
    6.6501   -0.7442   -0.0000 C   0  0  0  0  0  0  0  0  0  0  0  0
    5.5217   -3.0850   -0.0000 C   0  0  0  0  0  0  0  0  0  0  0  0
    6.5181    2.8449   -0.0000 C   0  0  0  0  0  0  0  0  0  0  0  0
    6.7461   -2.1967   -0.0000 C   0  0  0  0  0  0  0  0  0  0  0  0
  1  2  1  0
  1  3  1  0
  1  4  1  0
  2  5  1  0
  2  6  1  0
  3  7  1  0
  4  8  1  0
  7  9  1  0
  9 10  1  0
  9 11  1  0
 10 12  2  0
 10 13  1  0
 11 14  2  0
 11 15  1  0
 12 16  1  0
 13 17  2  0
 14 18  1  0
 15 19  2  0
 16 20  2  0
 18 21  2  0
  8  9  1  0
 17 20  1  0
 19 21  1  0
M  END
>  <MolRegNo>  (1) 
14855

>  <m>  (1) 
=

>  <Value>  (1) 
4.8

>  <Unit>  (1) 
nM

>  <Type>  (1) 
Ki

>  <pValue>  (1) 
8.32

>  <Ligand Efficiency>  (1) 
0

>  <Binding Efficiency>  (1) 
0

>  <Surface Efficiency>  (1) 
0

>  <Assay Index>  (1) 
147623

>  <Assay Category>  (1) 


>  <Assay Organism>  (1) 
Homo sapiens

>  <Target ID>  (1) 
11365

>  <Target Name>  (1) 
Cytochrome P450 2D6

>  <Target Organism>  (1) 
Homo sapiens

>  <Target Description>  (1) 
Target is a single protein chain

>  <Sequence Accession>  (1) 
P10635

>  <Reference>  (1) 
J Med Chem 36 (9), 1136-1145 (1993)

>  <Pubmed ID>  (1) 
8487254

>  <DOI>  (1) 
10.1021/jm00061a004

$$$$
