4wnv_ligand_355
     RDKit          2D

 23 27  0  0  0  0  0  0  0  0999 V2000
    0.0000   -0.0000   -0.0000 O   0  0  0  0  0  0  0  0  0  0  0  0
    1.0560    0.6062   -0.0000 C   0  0  0  0  0  0  0  0  0  0  0  0
    2.3466   -0.2151   -0.0000 C   0  0  0  0  0  0  0  0  0  0  0  0
    1.0364    2.3271   -0.0000 C   0  0  0  0  0  0  0  0  0  0  0  0
    3.6373    0.6844   -0.0000 C   0  0  0  0  0  0  0  0  0  0  0  0
    2.3075    3.1093   -0.0000 C   0  0  0  0  0  0  0  0  0  0  0  0
    1.7209    1.3102   -0.0000 C   0  0  0  0  0  0  0  0  0  0  0  0
    3.6177    2.3271   -0.0000 C   0  0  0  0  0  0  0  0  0  0  0  0
    4.8497   -0.1760   -0.0000 C   0  0  0  0  0  0  0  0  0  0  0  0
    2.9333    1.3298   -0.0000 C   0  0  0  0  0  0  0  0  0  0  0  0
    4.8302    3.1875   -0.0000 C   0  0  0  0  0  0  0  0  0  0  0  0
    6.0621    0.7235   -0.0000 C   0  0  0  0  0  0  0  0  0  0  0  0
    3.5004    0.2738   -0.0000 O   0  0  0  0  0  0  0  0  0  0  0  0
    6.0426    2.3662   -0.0000 C   0  0  0  0  0  0  0  0  0  0  0  0
    4.8106    4.8497   -0.0000 C   0  0  0  0  0  0  0  0  0  0  0  0
    7.2355    3.2266   -0.0000 C   0  0  0  0  0  0  0  0  0  0  0  0
    6.0230    5.7297   -0.0000 C   0  0  0  0  0  0  0  0  0  0  0  0
    7.2159    4.8888   -0.0000 C   0  0  0  0  0  0  0  0  0  0  0  0
    9.6994    3.2462   -0.0000 C   0  0  0  0  0  0  0  0  0  0  0  0
    8.4479    5.7688   -0.0000 C   0  0  0  0  0  0  0  0  0  0  0  0
    7.1963    6.1208   -0.0000 C   0  0  0  0  0  0  0  0  0  0  0  0
    9.6799    4.9084   -0.0000 C   0  0  0  0  0  0  0  0  0  0  0  0
    8.4283    7.0008   -0.0000 O   0  0  0  0  0  0  0  0  0  0  0  0
  1  2  2  0
  2  3  1  0
  2  4  1  0
  3  5  2  0
  4  6  1  0
  4  7  1  1
  5  8  1  0
  5  9  1  0
  7 10  1  0
  8 11  1  0
  9 12  1  0
 10 13  1  6
 11 14  1  0
 11 15  1  1
 14 16  1  0
 15 17  1  0
 16 18  1  0
 16 19  1  1
 18 20  1  0
 18 21  1  1
 19 22  1  0
 20 23  2  0
  8  6  1  6
  8 10  1  0
 14 12  1  6
 17 18  1  0
 20 22  1  0
M  END
>  <MolRegNo>  (1) 
2058221

>  <m>  (1) 
=

>  <Value>  (1) 
870

>  <Unit>  (1) 
nM

>  <Type>  (1) 
Ki

>  <pValue>  (1) 
6.06

>  <Ligand Efficiency>  (1) 
0.36

>  <Binding Efficiency>  (1) 
19.27

>  <Surface Efficiency>  (1) 
11.15

>  <Assay Index>  (1) 
985564

>  <Assay Category>  (1) 


>  <Assay Organism>  (1) 
Homo sapiens

>  <Target ID>  (1) 
65

>  <Target Name>  (1) 
Cytochrome P450 19A1

>  <Target Organism>  (1) 
Homo sapiens

>  <Target Description>  (1) 
Target is a single protein chain

>  <Sequence Accession>  (1) 
P11511

>  <Reference>  (1) 


>  <Pubmed ID>  (1) 
26469743

>  <DOI>  (1) 
10.1016/j.ejmech.2015.09.038

$$$$
