4wnv_ligand_147
     RDKit          2D

 36 40  0  0  0  0  0  0  0  0999 V2000
    0.0000   -0.0000   -0.0000 F   0  0  0  0  0  0  0  0  0  0  0  0
    0.0000   -1.4659   -0.0000 C   0  0  0  0  0  0  0  0  0  0  0  0
    1.2783   -2.1813   -0.0000 C   0  0  0  0  0  0  0  0  0  0  0  0
   -1.2900   -2.1930   -0.0000 C   0  0  0  0  0  0  0  0  0  0  0  0
    1.2783   -3.6589   -0.0000 C   0  0  0  0  0  0  0  0  0  0  0  0
   -1.3017   -3.6707   -0.0000 C   0  0  0  0  0  0  0  0  0  0  0  0
    2.5566   -4.3860   -0.0000 N   0  0  0  0  0  0  0  0  0  0  0  0
   -0.0117   -4.3860   -0.0000 C   0  0  0  0  0  0  0  0  0  0  0  0
   -2.5917   -4.3978   -0.0000 C   0  0  0  0  0  0  0  0  0  0  0  0
    3.8231   -3.6238   -0.0000 C   0  0  0  0  0  0  0  0  0  0  0  0
   -3.8935   -5.1131   -0.0000 F   0  0  0  0  0  0  0  0  0  0  0  0
   -1.8647   -5.6760   -0.0000 F   0  0  0  0  0  0  0  0  0  0  0  0
   -3.3423   -3.1078   -0.0000 F   0  0  0  0  0  0  0  0  0  0  0  0
    3.8114   -2.1344   -0.0000 O   0  0  0  0  0  0  0  0  0  0  0  0
    5.1014   -4.3509   -0.0000 N   0  0  0  0  0  0  0  0  0  0  0  0
    6.3680   -3.5886   -0.0000 C   0  0  0  0  0  0  0  0  0  0  0  0
    6.3328   -2.0992   -0.0000 C   0  0  0  0  0  0  0  0  0  0  0  0
    7.6345   -4.3157   -0.0000 C   0  0  0  0  0  0  0  0  0  0  0  0
    7.6111   -1.3486   -0.0000 C   0  0  0  0  0  0  0  0  0  0  0  0
    8.9011   -3.5651   -0.0000 C   0  0  0  0  0  0  0  0  0  0  0  0
    8.8893   -2.0757   -0.0000 N   0  0  0  0  0  0  0  0  0  0  0  0
    8.8776   -0.5864   -0.0000 C   0  0  0  0  0  0  0  0  0  0  0  0
   10.1676   -2.8028   -0.0000 C   0  0  0  0  0  0  0  0  0  0  0  0
   10.1559   -1.3252   -0.0000 C   0  0  0  0  0  0  0  0  0  0  0  0
   11.4225   -2.0523   -0.0000 C   0  0  0  0  0  0  0  0  0  0  0  0
   12.6890   -1.3017   -0.0000 C   0  0  0  0  0  0  0  0  0  0  0  0
   11.3990   -3.5182   -0.0000 C   0  0  0  0  0  0  0  0  0  0  0  0
   13.9556   -2.0406   -0.0000 C   0  0  0  0  0  0  0  0  0  0  0  0
   12.6656   -4.2453   -0.0000 C   0  0  0  0  0  0  0  0  0  0  0  0
   13.9204   -3.4948   -0.0000 N   0  0  0  0  0  0  0  0  0  0  0  0
   15.2221   -2.7677   -0.0000 C   0  0  0  0  0  0  0  0  0  0  0  0
   13.9321   -4.9724   -0.0000 C   0  0  0  0  0  0  0  0  0  0  0  0
   15.3863   -3.4830   -0.0000 C   0  0  0  0  0  0  0  0  0  0  0  0
   15.1987   -4.2336   -0.0000 C   0  0  0  0  0  0  0  0  0  0  0  0
   16.1134   -4.7496   -0.0000 O   0  0  0  0  0  0  0  0  0  0  0  0
   16.1134   -2.1930   -0.0000 C   0  0  0  0  0  0  0  0  0  0  0  0
  1  2  1  0
  2  3  2  0
  2  4  1  0
  3  5  1  0
  4  6  2  0
  5  7  1  0
  5  8  2  0
  6  9  1  0
  7 10  1  0
  9 11  1  0
  9 12  1  0
  9 13  1  0
 10 14  2  0
 10 15  1  0
 15 16  1  0
 16 17  1  0
 16 18  1  0
 17 19  1  0
 18 20  1  0
 19 21  1  0
 19 22  1  0
 20 23  1  0
 21 24  1  0
 24 25  1  0
 25 26  2  0
 25 27  1  0
 26 28  1  0
 27 29  1  0
 28 30  1  0
 28 31  1  0
 29 32  1  0
 30 33  1  0
 31 34  1  0
 33 35  2  0
 33 36  1  0
  6  8  1  0
 20 21  1  0
 22 23  1  0
 29 30  1  0
 32 34  1  0
M  END
>  <MolRegNo>  (1) 
422360

>  <m>  (1) 
=

>  <Value>  (1) 
15000

>  <Unit>  (1) 
nM

>  <Type>  (1) 
Ki

>  <pValue>  (1) 
4.82

>  <Ligand Efficiency>  (1) 
0

>  <Binding Efficiency>  (1) 
0

>  <Surface Efficiency>  (1) 
0

>  <Assay Index>  (1) 
310498

>  <Assay Category>  (1) 


>  <Assay Organism>  (1) 


>  <Target ID>  (1) 
11365

>  <Target Name>  (1) 
Cytochrome P450 2D6

>  <Target Organism>  (1) 
Homo sapiens

>  <Target Description>  (1) 
Target is a single protein chain

>  <Sequence Accession>  (1) 
P10635

>  <Reference>  (1) 
Bioorg Med Chem Lett 18 (1), 147-151 (2008)

>  <Pubmed ID>  (1) 
18032038

>  <DOI>  (1) 
10.1016/j.bmcl.2007.10.109

$$$$
