4wnv_ligand_221
     RDKit          2D

 26 29  0  0  0  0  0  0  0  0999 V2000
    0.0000   -0.0000   -0.0000 O   0  0  0  0  0  0  0  0  0  0  0  0
    1.0659    0.6354   -0.0000 C   0  0  0  0  0  0  0  0  0  0  0  0
    2.3367   -0.1025   -0.0000 C   0  0  0  0  0  0  0  0  0  0  0  0
    1.0454    2.1522   -0.0000 C   0  0  0  0  0  0  0  0  0  0  0  0
    3.6075    0.6969   -0.0000 C   0  0  0  0  0  0  0  0  0  0  0  0
    2.2957    2.9106   -0.0000 C   0  0  0  0  0  0  0  0  0  0  0  0
    3.5870    2.2137   -0.0000 C   0  0  0  0  0  0  0  0  0  0  0  0
    4.8988   -0.0410   -0.0000 C   0  0  0  0  0  0  0  0  0  0  0  0
    4.8578    2.9721   -0.0000 C   0  0  0  0  0  0  0  0  0  0  0  0
    3.5460    3.4845   -0.0000 C   0  0  0  0  0  0  0  0  0  0  0  0
    6.1696    0.7584   -0.0000 C   0  0  0  0  0  0  0  0  0  0  0  0
    4.8988   -1.5783   -0.0000 C   0  0  0  0  0  0  0  0  0  0  0  0
    6.1286    2.2752   -0.0000 C   0  0  0  0  0  0  0  0  0  0  0  0
    4.8168    4.5094   -0.0000 C   0  0  0  0  0  0  0  0  0  0  0  0
    3.5460   -2.3367   -0.0000 C   0  0  0  0  0  0  0  0  0  0  0  0
    7.3995    3.0336   -0.0000 C   0  0  0  0  0  0  0  0  0  0  0  0
    6.0877    5.2883   -0.0000 C   0  0  0  0  0  0  0  0  0  0  0  0
    3.5460   -3.8740   -0.0000 C   0  0  0  0  0  0  0  0  0  0  0  0
    7.3790    4.5504   -0.0000 C   0  0  0  0  0  0  0  0  0  0  0  0
    9.9821    3.0336   -0.0000 C   0  0  0  0  0  0  0  0  0  0  0  0
    2.1932   -4.6324   -0.0000 C   0  0  0  0  0  0  0  0  0  0  0  0
    8.6498    5.3498   -0.0000 C   0  0  0  0  0  0  0  0  0  0  0  0
    7.3585    5.8212   -0.0000 C   0  0  0  0  0  0  0  0  0  0  0  0
    9.9616    4.5914   -0.0000 C   0  0  0  0  0  0  0  0  0  0  0  0
    2.1727   -5.8622   -0.0000 C   0  0  0  0  0  0  0  0  0  0  0  0
    8.6293    6.6206   -0.0000 O   0  0  0  0  0  0  0  0  0  0  0  0
  1  2  2  0
  2  3  1  0
  2  4  1  0
  3  5  2  0
  4  6  1  0
  5  7  1  0
  5  8  1  0
  7  9  1  0
  7 10  1  6
  8 11  1  0
  8 12  1  1
  9 13  1  0
  9 14  1  6
 12 15  1  0
 13 16  1  0
 14 17  1  0
 15 18  1  0
 16 19  1  0
 16 20  1  6
 18 21  1  0
 19 22  1  0
 19 23  1  6
 20 24  1  0
 21 25  1  0
 22 26  2  0
  6  7  1  0
 13 11  1  1
 17 19  1  0
 22 24  1  0
M  END
>  <MolRegNo>  (1) 
2057841

>  <m>  (1) 
=

>  <Value>  (1) 
9.3

>  <Unit>  (1) 
nM

>  <Type>  (1) 
Ki

>  <pValue>  (1) 
8.03

>  <Ligand Efficiency>  (1) 
0.42

>  <Binding Efficiency>  (1) 
22.53

>  <Surface Efficiency>  (1) 
23.53

>  <Assay Index>  (1) 
985353

>  <Assay Category>  (1) 


>  <Assay Organism>  (1) 
Homo sapiens

>  <Target ID>  (1) 
65

>  <Target Name>  (1) 
Cytochrome P450 19A1

>  <Target Organism>  (1) 
Homo sapiens

>  <Target Description>  (1) 
Target is a single protein chain

>  <Sequence Accession>  (1) 
P11511

>  <Reference>  (1) 


>  <Pubmed ID>  (1) 
26469743

>  <DOI>  (1) 
10.1016/j.ejmech.2015.09.038

$$$$
