4wnv_ligand_368
     RDKit          2D

 21 24  0  0  0  0  0  0  0  0999 V2000
    0.0000   -0.0000   -0.0000 O   0  0  0  0  0  0  0  0  0  0  0  0
    1.0643    0.6345   -0.0000 C   0  0  0  0  0  0  0  0  0  0  0  0
    2.3333   -0.1023   -0.0000 C   0  0  0  0  0  0  0  0  0  0  0  0
    1.0438    2.1491   -0.0000 C   0  0  0  0  0  0  0  0  0  0  0  0
    3.6023    0.6959   -0.0000 C   0  0  0  0  0  0  0  0  0  0  0  0
    2.2924    2.9064   -0.0000 C   0  0  0  0  0  0  0  0  0  0  0  0
    3.5818    2.2105   -0.0000 C   0  0  0  0  0  0  0  0  0  0  0  0
    4.8918   -0.0409   -0.0000 C   0  0  0  0  0  0  0  0  0  0  0  0
    4.8508    2.9678   -0.0000 C   0  0  0  0  0  0  0  0  0  0  0  0
    6.1607    0.7573   -0.0000 C   0  0  0  0  0  0  0  0  0  0  0  0
    4.8918   -1.2690   -0.0000 C   0  0  0  0  0  0  0  0  0  0  0  0
    6.1198    2.2719   -0.0000 C   0  0  0  0  0  0  0  0  0  0  0  0
    4.8099    4.5029   -0.0000 C   0  0  0  0  0  0  0  0  0  0  0  0
    7.3888    3.0292   -0.0000 C   0  0  0  0  0  0  0  0  0  0  0  0
    6.0789    5.2806   -0.0000 C   0  0  0  0  0  0  0  0  0  0  0  0
    7.3683    4.5438   -0.0000 C   0  0  0  0  0  0  0  0  0  0  0  0
    9.9677    3.0292   -0.0000 C   0  0  0  0  0  0  0  0  0  0  0  0
    8.6373    5.3420   -0.0000 C   0  0  0  0  0  0  0  0  0  0  0  0
    7.3479    5.8128   -0.0000 C   0  0  0  0  0  0  0  0  0  0  0  0
    9.9472    4.5847   -0.0000 C   0  0  0  0  0  0  0  0  0  0  0  0
    8.6169    6.6110   -0.0000 O   0  0  0  0  0  0  0  0  0  0  0  0
  1  2  1  0
  2  3  2  0
  2  4  1  0
  3  5  1  0
  4  6  2  0
  5  7  2  0
  5  8  1  0
  7  9  1  0
  8 10  1  0
  8 11  1  1
  9 12  1  0
  9 13  1  1
 12 14  1  0
 13 15  1  0
 14 16  1  0
 14 17  1  1
 16 18  1  0
 16 19  1  1
 17 20  1  0
 18 21  1  1
  6  7  1  0
 12 10  1  6
 15 16  1  0
 18 20  1  0
M  END
>  <MolRegNo>  (1) 
2058263

>  <m>  (1) 
=

>  <Value>  (1) 
100

>  <Unit>  (1) 
nM

>  <Type>  (1) 
Ki

>  <pValue>  (1) 
7

>  <Ligand Efficiency>  (1) 
0.46

>  <Binding Efficiency>  (1) 
24.44

>  <Surface Efficiency>  (1) 
17.3

>  <Assay Index>  (1) 
985353

>  <Assay Category>  (1) 


>  <Assay Organism>  (1) 
Homo sapiens

>  <Target ID>  (1) 
65

>  <Target Name>  (1) 
Cytochrome P450 19A1

>  <Target Organism>  (1) 
Homo sapiens

>  <Target Description>  (1) 
Target is a single protein chain

>  <Sequence Accession>  (1) 
P11511

>  <Reference>  (1) 


>  <Pubmed ID>  (1) 
26469743

>  <DOI>  (1) 
10.1016/j.ejmech.2015.09.038

$$$$
