4wnv_ligand_379
     RDKit          2D

 27 30  0  0  0  0  0  0  0  0999 V2000
    0.0000   -0.0000   -0.0000 Cl  0  0  0  0  0  0  0  0  0  0  0  0
    1.0516    0.6286   -0.0000 C   0  0  0  0  0  0  0  0  0  0  0  0
    2.3692   -0.1330   -0.0000 C   0  0  0  0  0  0  0  0  0  0  0  0
    1.0395    2.1758   -0.0000 C   0  0  0  0  0  0  0  0  0  0  0  0
    3.6867    0.6406   -0.0000 C   0  0  0  0  0  0  0  0  0  0  0  0
    2.3571    2.9494   -0.0000 C   0  0  0  0  0  0  0  0  0  0  0  0
    3.6746    2.1879   -0.0000 C   0  0  0  0  0  0  0  0  0  0  0  0
    4.9922    2.9735   -0.0000 C   0  0  0  0  0  0  0  0  0  0  0  0
    4.9801    4.5208   -0.0000 C   0  0  0  0  0  0  0  0  0  0  0  0
    6.3218    2.2241   -0.0000 C   0  0  0  0  0  0  0  0  0  0  0  0
    3.9043    5.1493   -0.0000 O   0  0  0  0  0  0  0  0  0  0  0  0
    6.3097    5.2944   -0.0000 O   0  0  0  0  0  0  0  0  0  0  0  0
    7.6394    2.9977   -0.0000 C   0  0  0  0  0  0  0  0  0  0  0  0
    6.3097    0.7011   -0.0000 C   0  0  0  0  0  0  0  0  0  0  0  0
    7.6273    4.5449   -0.0000 C   0  0  0  0  0  0  0  0  0  0  0  0
    8.9569    2.2483   -0.0000 C   0  0  0  0  0  0  0  0  0  0  0  0
    7.6273   -0.0484   -0.0000 C   0  0  0  0  0  0  0  0  0  0  0  0
    8.9448    5.3185   -0.0000 C   0  0  0  0  0  0  0  0  0  0  0  0
   10.2745    3.0219   -0.0000 C   0  0  0  0  0  0  0  0  0  0  0  0
    7.6273   -1.5714   -0.0000 C   0  0  0  0  0  0  0  0  0  0  0  0
    8.9448    0.7373   -0.0000 C   0  0  0  0  0  0  0  0  0  0  0  0
   10.2624    4.5691   -0.0000 C   0  0  0  0  0  0  0  0  0  0  0  0
    8.9448   -2.3208   -0.0000 C   0  0  0  0  0  0  0  0  0  0  0  0
   10.2624   -0.0121   -0.0000 C   0  0  0  0  0  0  0  0  0  0  0  0
   11.5799    5.3548   -0.0000 O   0  0  0  0  0  0  0  0  0  0  0  0
   10.2624   -1.5351   -0.0000 C   0  0  0  0  0  0  0  0  0  0  0  0
   11.5678    6.5998   -0.0000 C   0  0  0  0  0  0  0  0  0  0  0  0
  1  2  1  0
  2  3  2  0
  2  4  1  0
  3  5  1  0
  4  6  2  0
  5  7  2  0
  7  8  1  0
  8  9  1  0
  8 10  2  0
  9 11  2  0
  9 12  1  0
 10 13  1  0
 10 14  1  0
 12 15  1  0
 13 16  2  0
 14 17  1  0
 15 18  2  0
 16 19  1  0
 17 20  2  0
 17 21  1  0
 18 22  1  0
 20 23  1  0
 21 24  2  0
 22 25  1  0
 23 26  2  0
 25 27  1  0
  6  7  1  0
 13 15  1  0
 19 22  2  0
 24 26  1  0
M  END
>  <MolRegNo>  (1) 
2091070

>  <m>  (1) 
=

>  <Value>  (1) 
84

>  <Unit>  (1) 
nM

>  <Type>  (1) 
Ki

>  <pValue>  (1) 
7.08

>  <Ligand Efficiency>  (1) 
0.36

>  <Binding Efficiency>  (1) 
18.78

>  <Surface Efficiency>  (1) 
17.94

>  <Assay Index>  (1) 
1022774

>  <Assay Category>  (1) 


>  <Assay Organism>  (1) 
Homo sapiens

>  <Target ID>  (1) 
65

>  <Target Name>  (1) 
Cytochrome P450 19A1

>  <Target Organism>  (1) 
Homo sapiens

>  <Target Description>  (1) 
Target is a single protein chain

>  <Sequence Accession>  (1) 
P11511

>  <Reference>  (1) 
J Med Chem 59 (11), 5131-5148 (2016)

>  <Pubmed ID>  (1) 
26689671

>  <DOI>  (1) 
10.1021/acs.jmedchem.5b01281

$$$$
