4wnv_ligand_327
     RDKit          2D

 23 27  0  0  0  0  0  0  0  0999 V2000
    0.0000   -0.0000   -0.0000 O   0  0  0  0  0  0  0  0  0  0  0  0
    1.0607    0.6323   -0.0000 C   0  0  0  0  0  0  0  0  0  0  0  0
    2.3254   -0.1020   -0.0000 C   0  0  0  0  0  0  0  0  0  0  0  0
    1.0403    2.1418   -0.0000 C   0  0  0  0  0  0  0  0  0  0  0  0
    3.5901    0.6935   -0.0000 C   0  0  0  0  0  0  0  0  0  0  0  0
    2.2846    2.8965   -0.0000 C   0  0  0  0  0  0  0  0  0  0  0  0
    3.5697    2.2030   -0.0000 C   0  0  0  0  0  0  0  0  0  0  0  0
    4.8751   -0.0408   -0.0000 C   0  0  0  0  0  0  0  0  0  0  0  0
    4.8343    2.9577   -0.0000 C   0  0  0  0  0  0  0  0  0  0  0  0
    4.8955    1.4687   -0.0000 C   0  0  0  0  0  0  0  0  0  0  0  0
    6.1398    0.7547   -0.0000 C   0  0  0  0  0  0  0  0  0  0  0  0
    6.0990    2.2642   -0.0000 C   0  0  0  0  0  0  0  0  0  0  0  0
    4.7935    4.4876   -0.0000 C   0  0  0  0  0  0  0  0  0  0  0  0
    5.6503    0.3060   -0.0000 N   0  0  0  0  0  0  0  0  0  0  0  0
    4.1204    0.2856   -0.0000 C   0  0  0  0  0  0  0  0  0  0  0  0
    7.3637    3.0189   -0.0000 C   0  0  0  0  0  0  0  0  0  0  0  0
    6.0582    5.2627   -0.0000 C   0  0  0  0  0  0  0  0  0  0  0  0
    7.3433    4.5284   -0.0000 C   0  0  0  0  0  0  0  0  0  0  0  0
    9.9338    3.0189   -0.0000 C   0  0  0  0  0  0  0  0  0  0  0  0
    8.6080    5.3239   -0.0000 C   0  0  0  0  0  0  0  0  0  0  0  0
    7.3229    5.7930   -0.0000 C   0  0  0  0  0  0  0  0  0  0  0  0
    9.9134    4.5692   -0.0000 C   0  0  0  0  0  0  0  0  0  0  0  0
    8.5876    6.5886   -0.0000 O   0  0  0  0  0  0  0  0  0  0  0  0
  1  2  2  0
  2  3  1  0
  2  4  1  0
  3  5  2  0
  4  6  1  0
  5  7  1  0
  5  8  1  0
  7  9  1  0
  7 10  1  0
  8 11  1  0
  9 12  1  0
  9 13  1  1
 10 14  1  0
 10 15  1  6
 12 16  1  0
 13 17  1  0
 16 18  1  0
 16 19  1  1
 18 20  1  0
 18 21  1  1
 19 22  1  0
 20 23  1  1
  7  6  1  1
 12 11  1  6
 14 15  1  0
 17 18  1  0
 20 22  1  0
M  END
>  <MolRegNo>  (1) 
2058086

>  <m>  (1) 
=

>  <Value>  (1) 
3.4

>  <Unit>  (1) 
nM

>  <Type>  (1) 
Ki

>  <pValue>  (1) 
8.47

>  <Ligand Efficiency>  (1) 
0.5

>  <Binding Efficiency>  (1) 
26.84

>  <Surface Efficiency>  (1) 
14.3

>  <Assay Index>  (1) 
985537

>  <Assay Category>  (1) 


>  <Assay Organism>  (1) 
Homo sapiens

>  <Target ID>  (1) 
65

>  <Target Name>  (1) 
Cytochrome P450 19A1

>  <Target Organism>  (1) 
Homo sapiens

>  <Target Description>  (1) 
Target is a single protein chain

>  <Sequence Accession>  (1) 
P11511

>  <Reference>  (1) 


>  <Pubmed ID>  (1) 
26469743

>  <DOI>  (1) 
10.1016/j.ejmech.2015.09.038

$$$$
