4wnv_ligand_391
     RDKit          2D

 21 23  0  0  0  0  0  0  0  0999 V2000
    0.0000   -0.0000   -0.0000 Cl  0  0  0  0  0  0  0  0  0  0  0  0
    1.2841    0.7609   -0.0000 C   0  0  0  0  0  0  0  0  0  0  0  0
    1.2722    2.2709   -0.0000 C   0  0  0  0  0  0  0  0  0  0  0  0
    2.5801    0.0238   -0.0000 C   0  0  0  0  0  0  0  0  0  0  0  0
    2.5563    3.0319   -0.0000 C   0  0  0  0  0  0  0  0  0  0  0  0
    3.8642    0.7966   -0.0000 C   0  0  0  0  0  0  0  0  0  0  0  0
    3.8404    2.2828   -0.0000 C   0  0  0  0  0  0  0  0  0  0  0  0
    5.1245    3.0438   -0.0000 C   0  0  0  0  0  0  0  0  0  0  0  0
    5.1126    4.5538   -0.0000 C   0  0  0  0  0  0  0  0  0  0  0  0
    6.4086    2.3066   -0.0000 C   0  0  0  0  0  0  0  0  0  0  0  0
    3.8047    5.3147   -0.0000 C   0  0  0  0  0  0  0  0  0  0  0  0
    6.3967    0.8204   -0.0000 N   0  0  0  0  0  0  0  0  0  0  0  0
    2.4850    4.5776   -0.0000 C   0  0  0  0  0  0  0  0  0  0  0  0
    3.7928    6.8366   -0.0000 C   0  0  0  0  0  0  0  0  0  0  0  0
    7.6095   -0.0476   -0.0000 N   0  0  0  0  0  0  0  0  0  0  0  0
    5.1839   -0.0594   -0.0000 C   0  0  0  0  0  0  0  0  0  0  0  0
    1.1771    5.3385   -0.0000 C   0  0  0  0  0  0  0  0  0  0  0  0
    2.4850    7.5976   -0.0000 C   0  0  0  0  0  0  0  0  0  0  0  0
    7.1339   -1.4624   -0.0000 N   0  0  0  0  0  0  0  0  0  0  0  0
    5.6358   -1.4743   -0.0000 C   0  0  0  0  0  0  0  0  0  0  0  0
    1.1652    6.8604   -0.0000 C   0  0  0  0  0  0  0  0  0  0  0  0
  1  2  1  0
  2  3  2  0
  2  4  1  0
  3  5  1  0
  4  6  2  0
  5  7  2  0
  7  8  1  0
  8  9  2  0
  8 10  1  0
  9 11  1  0
 10 12  1  0
 11 13  2  0
 11 14  1  0
 12 15  1  0
 12 16  1  0
 13 17  1  0
 14 18  2  0
 15 19  2  0
 16 20  2  0
 17 21  2  0
  6  7  1  0
 18 21  1  0
 19 20  1  0
M  END
>  <MolRegNo>  (1) 
2375406

>  <m>  (1) 
=

>  <Value>  (1) 
81

>  <Unit>  (1) 
nM

>  <Type>  (1) 
Ki

>  <pValue>  (1) 
7.09

>  <Ligand Efficiency>  (1) 
0.46

>  <Binding Efficiency>  (1) 
23.98

>  <Surface Efficiency>  (1) 
23.09

>  <Assay Index>  (1) 
1255696

>  <Assay Category>  (1) 


>  <Assay Organism>  (1) 
Homo sapiens

>  <Target ID>  (1) 
65

>  <Target Name>  (1) 
Cytochrome P450 19A1

>  <Target Organism>  (1) 
Homo sapiens

>  <Target Description>  (1) 
Target is a single protein chain

>  <Sequence Accession>  (1) 
P11511

>  <Reference>  (1) 
Bioorg Med Chem Lett 29 (11), 1395-1398 (2019)

>  <Pubmed ID>  (1) 
30952594

>  <DOI>  (1) 
10.1016/j.bmcl.2019.03.033

$$$$
