4wnv_ligand_309
     RDKit          2D

 22 25  0  0  0  0  0  0  0  0999 V2000
    0.0000   -0.0000   -0.0000 F   0  0  0  0  0  0  0  0  0  0  0  0
   -0.0205    1.2711   -0.0000 C   0  0  0  0  0  0  0  0  0  0  0  0
   -1.3326    2.0502   -0.0000 C   0  0  0  0  0  0  0  0  0  0  0  0
    1.2506    2.0707   -0.0000 C   0  0  0  0  0  0  0  0  0  0  0  0
   -2.4397    1.4556   -0.0000 O   0  0  0  0  0  0  0  0  0  0  0  0
   -1.3531    3.5673   -0.0000 C   0  0  0  0  0  0  0  0  0  0  0  0
    1.2301    3.5878   -0.0000 C   0  0  0  0  0  0  0  0  0  0  0  0
    2.5422    1.3326   -0.0000 C   0  0  0  0  0  0  0  0  0  0  0  0
   -0.1025    4.3258   -0.0000 C   0  0  0  0  0  0  0  0  0  0  0  0
    2.5012    4.3463   -0.0000 C   0  0  0  0  0  0  0  0  0  0  0  0
    1.1891    4.8589   -0.0000 C   0  0  0  0  0  0  0  0  0  0  0  0
    3.8133    2.1322   -0.0000 C   0  0  0  0  0  0  0  0  0  0  0  0
    3.7723    3.6493   -0.0000 C   0  0  0  0  0  0  0  0  0  0  0  0
    2.4602    5.8840   -0.0000 C   0  0  0  0  0  0  0  0  0  0  0  0
    5.0434    4.4078   -0.0000 C   0  0  0  0  0  0  0  0  0  0  0  0
    3.7313    6.6630   -0.0000 C   0  0  0  0  0  0  0  0  0  0  0  0
    5.0229    5.9250   -0.0000 C   0  0  0  0  0  0  0  0  0  0  0  0
    7.6266    4.4078   -0.0000 C   0  0  0  0  0  0  0  0  0  0  0  0
    6.2940    6.7245   -0.0000 C   0  0  0  0  0  0  0  0  0  0  0  0
    5.0024    7.1961   -0.0000 C   0  0  0  0  0  0  0  0  0  0  0  0
    7.6061    5.9660   -0.0000 C   0  0  0  0  0  0  0  0  0  0  0  0
    6.2735    7.9956   -0.0000 O   0  0  0  0  0  0  0  0  0  0  0  0
  1  2  1  0
  2  3  1  0
  2  4  2  0
  3  5  2  0
  3  6  1  0
  4  7  1  0
  4  8  1  0
  6  9  1  0
  7 10  1  0
  7 11  1  6
  8 12  1  0
 10 13  1  0
 10 14  1  6
 13 15  1  0
 14 16  1  0
 15 17  1  0
 15 18  1  6
 17 19  1  0
 17 20  1  6
 18 21  1  0
 19 22  2  0
  7  9  1  0
 13 12  1  1
 16 17  1  0
 19 21  1  0
M  END
>  <MolRegNo>  (1) 
2057830

>  <m>  (1) 
=

>  <Value>  (1) 
15

>  <Unit>  (1) 
nM

>  <Type>  (1) 
Ki

>  <pValue>  (1) 
7.82

>  <Ligand Efficiency>  (1) 
0.49

>  <Binding Efficiency>  (1) 
25.7

>  <Surface Efficiency>  (1) 
22.92

>  <Assay Index>  (1) 
985534

>  <Assay Category>  (1) 


>  <Assay Organism>  (1) 
Homo sapiens

>  <Target ID>  (1) 
65

>  <Target Name>  (1) 
Cytochrome P450 19A1

>  <Target Organism>  (1) 
Homo sapiens

>  <Target Description>  (1) 
Target is a single protein chain

>  <Sequence Accession>  (1) 
P11511

>  <Reference>  (1) 


>  <Pubmed ID>  (1) 
26469743

>  <DOI>  (1) 
10.1016/j.ejmech.2015.09.038

$$$$
