4wnv_ligand_100
     RDKit          2D

 22 25  0  0  0  0  0  0  0  0999 V2000
    0.0000   -0.0000   -0.0000 O   0  0  0  0  0  0  0  0  0  0  0  0
   -0.0119    1.5092   -0.0000 C   0  0  0  0  0  0  0  0  0  0  0  0
    1.2715    2.2697   -0.0000 C   0  0  0  0  0  0  0  0  0  0  0  0
   -1.3190    2.2578   -0.0000 C   0  0  0  0  0  0  0  0  0  0  0  0
    1.2596    3.7551   -0.0000 C   0  0  0  0  0  0  0  0  0  0  0  0
    2.5430    1.5329   -0.0000 C   0  0  0  0  0  0  0  0  0  0  0  0
   -1.3309    3.7670   -0.0000 C   0  0  0  0  0  0  0  0  0  0  0  0
   -0.0475    4.5275   -0.0000 O   0  0  0  0  0  0  0  0  0  0  0  0
    2.5430    4.5156   -0.0000 C   0  0  0  0  0  0  0  0  0  0  0  0
    3.8264    2.2816   -0.0000 C   0  0  0  0  0  0  0  0  0  0  0  0
   -2.6381    4.5275   -0.0000 C   0  0  0  0  0  0  0  0  0  0  0  0
    3.8264    3.7670   -0.0000 C   0  0  0  0  0  0  0  0  0  0  0  0
    2.5311    6.0248   -0.0000 C   0  0  0  0  0  0  0  0  0  0  0  0
   -3.9453    3.7908   -0.0000 C   0  0  0  0  0  0  0  0  0  0  0  0
   -2.6500    6.0486   -0.0000 C   0  0  0  0  0  0  0  0  0  0  0  0
    5.1098    4.5275   -0.0000 C   0  0  0  0  0  0  0  0  0  0  0  0
    3.8264    6.7735   -0.0000 C   0  0  0  0  0  0  0  0  0  0  0  0
   -5.2524    4.5513   -0.0000 C   0  0  0  0  0  0  0  0  0  0  0  0
   -3.9571    6.8091   -0.0000 C   0  0  0  0  0  0  0  0  0  0  0  0
    5.1098    6.0367   -0.0000 C   0  0  0  0  0  0  0  0  0  0  0  0
    3.8264    8.2827   -0.0000 O   0  0  0  0  0  0  0  0  0  0  0  0
   -5.2643    6.0605   -0.0000 C   0  0  0  0  0  0  0  0  0  0  0  0
  1  2  2  0
  2  3  1  0
  2  4  1  0
  3  5  2  0
  3  6  1  0
  4  7  2  0
  5  8  1  0
  5  9  1  0
  6 10  2  0
  7 11  1  0
  9 12  2  0
  9 13  1  0
 11 14  2  0
 11 15  1  0
 12 16  1  0
 13 17  2  0
 14 18  1  0
 15 19  2  0
 16 20  2  0
 17 21  1  0
 18 22  2  0
  7  8  1  0
 10 12  1  0
 17 20  1  0
 19 22  1  0
M  END
>  <MolRegNo>  (1) 
163336

>  <m>  (1) 
=

>  <Value>  (1) 
5

>  <Unit>  (1) 
nM

>  <Type>  (1) 
Ki

>  <pValue>  (1) 
8.3

>  <Ligand Efficiency>  (1) 
0.52

>  <Binding Efficiency>  (1) 
28.79

>  <Surface Efficiency>  (1) 
16.46

>  <Assay Index>  (1) 
50795

>  <Assay Category>  (1) 


>  <Assay Organism>  (1) 


>  <Target ID>  (1) 
65

>  <Target Name>  (1) 
Cytochrome P450 19A1

>  <Target Organism>  (1) 
Homo sapiens

>  <Target Description>  (1) 
Target is a single protein chain

>  <Sequence Accession>  (1) 
P11511

>  <Reference>  (1) 
J Med Chem 33 (11), 2933-2942 (1990)

>  <Pubmed ID>  (1) 
2231592

>  <DOI>  (1) 
10.1021/jm00173a001

$$$$
