4wnv_ligand_153
     RDKit          2D

 25 28  0  0  0  0  0  0  0  0999 V2000
    0.0000   -0.0000   -0.0000 F   0  0  0  0  0  0  0  0  0  0  0  0
   -1.0173   -1.1001   -0.0000 C   0  0  0  0  0  0  0  0  0  0  0  0
   -2.4959   -0.7807   -0.0000 C   0  0  0  0  0  0  0  0  0  0  0  0
   -0.5678   -2.5195   -0.0000 C   0  0  0  0  0  0  0  0  0  0  0  0
   -3.5131   -1.8808   -0.0000 C   0  0  0  0  0  0  0  0  0  0  0  0
   -1.5850   -3.6196   -0.0000 C   0  0  0  0  0  0  0  0  0  0  0  0
   -3.0636   -3.3002   -0.0000 C   0  0  0  0  0  0  0  0  0  0  0  0
   -4.0809   -4.4003   -0.0000 C   0  0  0  0  0  0  0  0  0  0  0  0
   -3.6314   -5.8197   -0.0000 N   0  0  0  0  0  0  0  0  0  0  0  0
   -4.5304   -7.0263   -0.0000 C   0  0  0  0  0  0  0  0  0  0  0  0
   -2.2120   -6.2692   -0.0000 C   0  0  0  0  0  0  0  0  0  0  0  0
   -3.6551   -8.2328   -0.0000 N   0  0  0  0  0  0  0  0  0  0  0  0
   -6.0445   -7.0144   -0.0000 N   0  0  0  0  0  0  0  0  0  0  0  0
   -2.2238   -7.7596   -0.0000 C   0  0  0  0  0  0  0  0  0  0  0  0
   -0.9226   -5.5004   -0.0000 C   0  0  0  0  0  0  0  0  0  0  0  0
   -6.8015   -5.7014   -0.0000 C   0  0  0  0  0  0  0  0  0  0  0  0
   -6.8015   -8.3038   -0.0000 C   0  0  0  0  0  0  0  0  0  0  0  0
   -0.9345   -8.4930   -0.0000 C   0  0  0  0  0  0  0  0  0  0  0  0
    0.3667   -6.2456   -0.0000 C   0  0  0  0  0  0  0  0  0  0  0  0
   -8.3156   -5.6896   -0.0000 C   0  0  0  0  0  0  0  0  0  0  0  0
   -8.3156   -8.2919   -0.0000 C   0  0  0  0  0  0  0  0  0  0  0  0
    0.3549   -7.7360   -0.0000 C   0  0  0  0  0  0  0  0  0  0  0  0
   -9.0726   -6.9790   -0.0000 C   0  0  0  0  0  0  0  0  0  0  0  0
  -10.5867   -6.9671   -0.0000 N   0  0  0  0  0  0  0  0  0  0  0  0
  -11.3438   -8.2565   -0.0000 C   0  0  0  0  0  0  0  0  0  0  0  0
  1  2  1  0
  2  3  2  0
  2  4  1  0
  3  5  1  0
  4  6  2  0
  5  7  2  0
  7  8  1  0
  8  9  1  0
  9 10  1  0
  9 11  1  0
 10 12  2  0
 10 13  1  0
 11 14  2  0
 11 15  1  0
 13 16  1  0
 13 17  1  0
 14 18  1  0
 15 19  2  0
 16 20  1  0
 17 21  1  0
 18 22  2  0
 20 23  1  0
 23 24  1  0
 24 25  1  0
  6  7  1  0
 12 14  1  0
 19 22  1  0
 21 23  1  0
M  END
>  <MolRegNo>  (1) 
561195

>  <m>  (1) 
=

>  <Value>  (1) 
6664

>  <Unit>  (1) 
nM

>  <Type>  (1) 
Ki

>  <pValue>  (1) 
5.18

>  <Ligand Efficiency>  (1) 
0

>  <Binding Efficiency>  (1) 
0

>  <Surface Efficiency>  (1) 
0

>  <Assay Index>  (1) 
429822

>  <Assay Category>  (1) 


>  <Assay Organism>  (1) 


>  <Target ID>  (1) 
11365

>  <Target Name>  (1) 
Cytochrome P450 2D6

>  <Target Organism>  (1) 
Homo sapiens

>  <Target Description>  (1) 
Target is a single protein chain

>  <Sequence Accession>  (1) 
P10635

>  <Reference>  (1) 
Bioorg Med Chem Lett 19 (15), 4380-4384 (2009)

>  <Pubmed ID>  (1) 
19553115

>  <DOI>  (1) 
10.1016/j.bmcl.2009.05.086

$$$$
