4wnv_ligand_361
     RDKit          2D

 29 33  0  0  0  0  0  0  0  0999 V2000
    0.0000   -0.0000   -0.0000 O   0  0  0  0  0  0  0  0  0  0  0  0
    1.0519    0.6271   -0.0000 C   0  0  0  0  0  0  0  0  0  0  0  0
    2.3061   -0.1011   -0.0000 C   0  0  0  0  0  0  0  0  0  0  0  0
    1.0317    2.1240   -0.0000 C   0  0  0  0  0  0  0  0  0  0  0  0
    3.5602    0.6878   -0.0000 C   0  0  0  0  0  0  0  0  0  0  0  0
    2.2656    2.8725   -0.0000 C   0  0  0  0  0  0  0  0  0  0  0  0
    3.5400    2.1847   -0.0000 C   0  0  0  0  0  0  0  0  0  0  0  0
    4.8346   -0.0405   -0.0000 C   0  0  0  0  0  0  0  0  0  0  0  0
    4.7942    2.9331   -0.0000 C   0  0  0  0  0  0  0  0  0  0  0  0
    6.0888    0.7485   -0.0000 C   0  0  0  0  0  0  0  0  0  0  0  0
    4.8346   -1.5576   -0.0000 C   0  0  0  0  0  0  0  0  0  0  0  0
    6.0483    2.2454   -0.0000 C   0  0  0  0  0  0  0  0  0  0  0  0
    4.7537    4.4503   -0.0000 C   0  0  0  0  0  0  0  0  0  0  0  0
    6.1495   -2.2858   -0.0000 C   0  0  0  0  0  0  0  0  0  0  0  0
    7.3025    2.9938   -0.0000 C   0  0  0  0  0  0  0  0  0  0  0  0
    6.0079    5.2190   -0.0000 C   0  0  0  0  0  0  0  0  0  0  0  0
    6.1495   -3.8030   -0.0000 C   0  0  0  0  0  0  0  0  0  0  0  0
    7.2823    4.4907   -0.0000 C   0  0  0  0  0  0  0  0  0  0  0  0
    9.8513    2.9938   -0.0000 C   0  0  0  0  0  0  0  0  0  0  0  0
    7.4643   -4.5312   -0.0000 C   0  0  0  0  0  0  0  0  0  0  0  0
    8.5364    5.2797   -0.0000 C   0  0  0  0  0  0  0  0  0  0  0  0
    7.2620    5.7449   -0.0000 C   0  0  0  0  0  0  0  0  0  0  0  0
    9.8311    4.5312   -0.0000 C   0  0  0  0  0  0  0  0  0  0  0  0
    7.4643   -6.0483   -0.0000 C   0  0  0  0  0  0  0  0  0  0  0  0
    8.7590   -3.7221   -0.0000 C   0  0  0  0  0  0  0  0  0  0  0  0
    8.5162    6.5338   -0.0000 O   0  0  0  0  0  0  0  0  0  0  0  0
    8.7792   -6.7766   -0.0000 C   0  0  0  0  0  0  0  0  0  0  0  0
   10.0738   -4.4503   -0.0000 C   0  0  0  0  0  0  0  0  0  0  0  0
   10.0738   -5.9674   -0.0000 C   0  0  0  0  0  0  0  0  0  0  0  0
  1  2  1  0
  2  3  2  0
  2  4  1  0
  3  5  1  0
  4  6  2  0
  5  7  2  0
  5  8  1  0
  7  9  1  0
  8 10  1  0
  8 11  1  6
  9 12  1  0
  9 13  1  1
 11 14  1  0
 12 15  1  0
 13 16  1  0
 14 17  1  0
 15 18  1  0
 15 19  1  1
 17 20  1  0
 18 21  1  0
 18 22  1  1
 19 23  1  0
 20 24  2  0
 20 25  1  0
 21 26  1  1
 24 27  1  0
 25 28  2  0
 27 29  2  0
  6  7  1  0
 12 10  1  6
 16 18  1  0
 21 23  1  0
 28 29  1  0
M  END
>  <MolRegNo>  (1) 
2058270

>  <m>  (1) 
=

>  <Value>  (1) 
100

>  <Unit>  (1) 
nM

>  <Type>  (1) 
Ki

>  <pValue>  (1) 
7

>  <Ligand Efficiency>  (1) 
0.33

>  <Binding Efficiency>  (1) 
17.92

>  <Surface Efficiency>  (1) 
17.3

>  <Assay Index>  (1) 
985353

>  <Assay Category>  (1) 


>  <Assay Organism>  (1) 
Homo sapiens

>  <Target ID>  (1) 
65

>  <Target Name>  (1) 
Cytochrome P450 19A1

>  <Target Organism>  (1) 
Homo sapiens

>  <Target Description>  (1) 
Target is a single protein chain

>  <Sequence Accession>  (1) 
P11511

>  <Reference>  (1) 


>  <Pubmed ID>  (1) 
26469743

>  <DOI>  (1) 
10.1016/j.ejmech.2015.09.038

$$$$
