4wnv_ligand_294
     RDKit          2D

 30 34  0  0  0  0  0  0  0  0999 V2000
    0.0000   -0.0000   -0.0000 O   0  0  0  0  0  0  0  0  0  0  0  0
    1.0637    0.6341   -0.0000 C   0  0  0  0  0  0  0  0  0  0  0  0
    2.3320   -0.1023   -0.0000 C   0  0  0  0  0  0  0  0  0  0  0  0
    1.0433    2.1479   -0.0000 C   0  0  0  0  0  0  0  0  0  0  0  0
    3.6003    0.6955   -0.0000 C   0  0  0  0  0  0  0  0  0  0  0  0
    2.2911    2.9048   -0.0000 C   0  0  0  0  0  0  0  0  0  0  0  0
    3.5798    2.2093   -0.0000 C   0  0  0  0  0  0  0  0  0  0  0  0
    4.8890   -0.0409   -0.0000 C   0  0  0  0  0  0  0  0  0  0  0  0
    4.8481    2.9662   -0.0000 C   0  0  0  0  0  0  0  0  0  0  0  0
    3.5389    3.4776   -0.0000 C   0  0  0  0  0  0  0  0  0  0  0  0
    6.1573    0.7569   -0.0000 C   0  0  0  0  0  0  0  0  0  0  0  0
    6.1164    2.2706   -0.0000 C   0  0  0  0  0  0  0  0  0  0  0  0
    4.8072    4.5004   -0.0000 C   0  0  0  0  0  0  0  0  0  0  0  0
    7.4870    0.0205   -0.0000 C   0  0  0  0  0  0  0  0  0  0  0  0
    7.3847    3.0275   -0.0000 C   0  0  0  0  0  0  0  0  0  0  0  0
    6.0755    5.2777   -0.0000 C   0  0  0  0  0  0  0  0  0  0  0  0
    7.4870   -1.5138   -0.0000 C   0  0  0  0  0  0  0  0  0  0  0  0
    7.3642    4.5413   -0.0000 C   0  0  0  0  0  0  0  0  0  0  0  0
    9.9622    3.0275   -0.0000 C   0  0  0  0  0  0  0  0  0  0  0  0
    8.8166   -2.2502   -0.0000 C   0  0  0  0  0  0  0  0  0  0  0  0
    8.6325    5.3391   -0.0000 C   0  0  0  0  0  0  0  0  0  0  0  0
    7.3438    5.8096   -0.0000 C   0  0  0  0  0  0  0  0  0  0  0  0
    9.9417    4.5822   -0.0000 C   0  0  0  0  0  0  0  0  0  0  0  0
   10.1258   -1.4319   -0.0000 C   0  0  0  0  0  0  0  0  0  0  0  0
    8.8166   -3.7844   -0.0000 C   0  0  0  0  0  0  0  0  0  0  0  0
    8.6121    6.6074   -0.0000 O   0  0  0  0  0  0  0  0  0  0  0  0
   11.4555   -2.1684   -0.0000 C   0  0  0  0  0  0  0  0  0  0  0  0
   10.1463   -4.5208   -0.0000 C   0  0  0  0  0  0  0  0  0  0  0  0
   11.4555   -3.7026   -0.0000 C   0  0  0  0  0  0  0  0  0  0  0  0
   12.5192   -4.2754   -0.0000 N   0  0  0  0  0  0  0  0  0  0  0  0
  1  2  2  0
  2  3  1  0
  2  4  1  0
  3  5  2  0
  4  6  2  0
  5  7  1  0
  5  8  1  0
  7  9  1  0
  7 10  1  1
  8 11  1  0
 12  9  1  0
  9 13  1  1
 11 14  1  6
 12 15  1  0
 13 16  1  0
 14 17  1  0
 15 18  1  0
 15 19  1  1
 17 20  1  0
 18 21  1  0
 18 22  1  1
 19 23  1  0
 20 24  2  0
 20 25  1  0
 21 26  2  0
 24 27  1  0
 25 28  2  0
 27 29  2  0
 29 30  1  0
  6  7  1  0
 12 11  1  6
 16 18  1  0
 21 23  1  0
 28 29  1  0
M  END
>  <MolRegNo>  (1) 
2057982

>  <m>  (1) 
=

>  <Value>  (1) 
7

>  <Unit>  (1) 
nM

>  <Type>  (1) 
Ki

>  <pValue>  (1) 
8.15

>  <Ligand Efficiency>  (1) 
0.37

>  <Binding Efficiency>  (1) 
20.21

>  <Surface Efficiency>  (1) 
13.56

>  <Assay Index>  (1) 
985527

>  <Assay Category>  (1) 


>  <Assay Organism>  (1) 
Homo sapiens

>  <Target ID>  (1) 
65

>  <Target Name>  (1) 
Cytochrome P450 19A1

>  <Target Organism>  (1) 
Homo sapiens

>  <Target Description>  (1) 
Target is a single protein chain

>  <Sequence Accession>  (1) 
P11511

>  <Reference>  (1) 


>  <Pubmed ID>  (1) 
26469743

>  <DOI>  (1) 
10.1016/j.ejmech.2015.09.038

$$$$
