4wnv_ligand_71
     RDKit          2D

 24 27  0  0  0  0  0  0  0  0999 V2000
    0.0000   -0.0000   -0.0000 O   0  0  0  0  0  0  0  0  0  0  0  0
    1.3296   -0.7504   -0.0000 C   0  0  0  0  0  0  0  0  0  0  0  0
    1.3165   -2.2775   -0.0000 C   0  0  0  0  0  0  0  0  0  0  0  0
    2.3960    0.3686   -0.0000 C   0  0  0  0  0  0  0  0  0  0  0  0
   -0.0132   -3.0279   -0.0000 C   0  0  0  0  0  0  0  0  0  0  0  0
    2.6329   -3.0279   -0.0000 C   0  0  0  0  0  0  0  0  0  0  0  0
    3.9626    1.3033   -0.0000 N   0  0  0  0  0  0  0  0  0  0  0  0
    3.0805    1.6061   -0.0000 C   0  0  0  0  0  0  0  0  0  0  0  0
   -0.0263   -4.5550   -0.0000 C   0  0  0  0  0  0  0  0  0  0  0  0
   -1.3560   -2.2512   -0.0000 C   0  0  0  0  0  0  0  0  0  0  0  0
    2.6329   -4.5550   -0.0000 C   0  0  0  0  0  0  0  0  0  0  0  0
    3.9099    2.6724   -0.0000 C   0  0  0  0  0  0  0  0  0  0  0  0
    5.5555    0.4344   -0.0000 C   0  0  0  0  0  0  0  0  0  0  0  0
    4.7393    2.4618   -0.0000 C   0  0  0  0  0  0  0  0  0  0  0  0
    1.3033   -5.3054   -0.0000 N   0  0  0  0  0  0  0  0  0  0  0  0
   -1.3691   -5.3185   -0.0000 C   0  0  0  0  0  0  0  0  0  0  0  0
   -2.6988   -3.0147   -0.0000 C   0  0  0  0  0  0  0  0  0  0  0  0
    4.6735    3.5281   -0.0000 C   0  0  0  0  0  0  0  0  0  0  0  0
    6.2927    1.6061   -0.0000 C   0  0  0  0  0  0  0  0  0  0  0  0
   -2.7119   -4.5418   -0.0000 C   0  0  0  0  0  0  0  0  0  0  0  0
   -4.0021   -2.2380   -0.0000 O   0  0  0  0  0  0  0  0  0  0  0  0
    3.8309    4.3575   -0.0000 C   0  0  0  0  0  0  0  0  0  0  0  0
   -4.0152   -0.7372   -0.0000 C   0  0  0  0  0  0  0  0  0  0  0  0
    2.6988    4.0679   -0.0000 C   0  0  0  0  0  0  0  0  0  0  0  0
  1  2  2  0
  2  3  1  0
  2  4  1  0
  3  5  1  0
  3  6  2  0
  4  7  1  0
  4  8  1  0
  5  9  2  0
  5 10  1  0
  6 11  1  0
  7 12  1  0
  7 13  1  0
  8 14  1  0
  9 15  1  0
  9 16  1  0
 10 17  2  0
 12 18  1  0
 13 19  1  0
 16 20  2  0
 17 21  1  0
 18 22  1  0
 21 23  1  0
 22 24  2  0
 11 15  2  0
 14 18  1  0
 14 19  1  0
 17 20  1  0
M  END
>  <MolRegNo>  (1) 
15313

>  <m>  (1) 
=

>  <Value>  (1) 
720

>  <Unit>  (1) 
nM

>  <Type>  (1) 
Ki

>  <pValue>  (1) 
6.14

>  <Ligand Efficiency>  (1) 
0

>  <Binding Efficiency>  (1) 
0

>  <Surface Efficiency>  (1) 
0

>  <Assay Index>  (1) 
122804

>  <Assay Category>  (1) 


>  <Assay Organism>  (1) 
Homo sapiens

>  <Target ID>  (1) 
11365

>  <Target Name>  (1) 
Cytochrome P450 2D6

>  <Target Organism>  (1) 
Homo sapiens

>  <Target Description>  (1) 
Target is a single protein chain

>  <Sequence Accession>  (1) 
P10635

>  <Reference>  (1) 
J Med Chem 36 (9), 1136-1145 (1993)

>  <Pubmed ID>  (1) 
8487254

>  <DOI>  (1) 
10.1021/jm00061a004

$$$$
