4wnv_ligand_143
     RDKit          2D

 15 16  0  0  0  0  0  0  0  0999 V2000
    0.0000   -0.0000   -0.0000 S   0  0  0  0  0  0  0  0  0  0  0  0
   -0.1452    1.5246   -0.0000 C   0  0  0  0  0  0  0  0  0  0  0  0
    1.4883   -0.3146   -0.0000 C   0  0  0  0  0  0  0  0  0  0  0  0
   -1.4883    2.3111   -0.0000 C   0  0  0  0  0  0  0  0  0  0  0  0
    1.2342    2.1659   -0.0000 C   0  0  0  0  0  0  0  0  0  0  0  0
    2.2506    1.0285   -0.0000 C   0  0  0  0  0  0  0  0  0  0  0  0
    2.0933   -1.7061   -0.0000 C   0  0  0  0  0  0  0  0  0  0  0  0
   -2.8314    1.5488   -0.0000 C   0  0  0  0  0  0  0  0  0  0  0  0
   -1.5004    3.8599   -0.0000 C   0  0  0  0  0  0  0  0  0  0  0  0
    1.1737   -2.9403   -0.0000 N   0  0  0  0  0  0  0  0  0  0  0  0
   -4.1745    2.3232   -0.0000 N   0  0  0  0  0  0  0  0  0  0  0  0
   -2.8435    4.6343   -0.0000 C   0  0  0  0  0  0  0  0  0  0  0  0
    1.6577   -4.0535   -0.0000 C   0  0  0  0  0  0  0  0  0  0  0  0
   -0.0605   -2.7951   -0.0000 C   0  0  0  0  0  0  0  0  0  0  0  0
   -4.1866    3.8720   -0.0000 C   0  0  0  0  0  0  0  0  0  0  0  0
  1  2  1  0
  1  3  1  0
  2  4  1  0
  2  5  2  0
  3  6  2  0
  3  7  1  0
  4  8  2  0
  4  9  1  0
  7 10  1  0
  8 11  1  0
  9 12  2  0
 10 13  1  0
 10 14  1  0
 11 15  2  0
  5  6  1  0
 12 15  1  0
M  END
>  <MolRegNo>  (1) 
299730

>  <m>  (1) 
=

>  <Value>  (1) 
14400

>  <Unit>  (1) 
nM

>  <Type>  (1) 
Ki

>  <pValue>  (1) 
4.84

>  <Ligand Efficiency>  (1) 
0

>  <Binding Efficiency>  (1) 
0

>  <Surface Efficiency>  (1) 
0

>  <Assay Index>  (1) 
269558

>  <Assay Category>  (1) 


>  <Assay Organism>  (1) 
Homo sapiens

>  <Target ID>  (1) 
11365

>  <Target Name>  (1) 
Cytochrome P450 2D6

>  <Target Organism>  (1) 
Homo sapiens

>  <Target Description>  (1) 
Target is a single protein chain

>  <Sequence Accession>  (1) 
P10635

>  <Reference>  (1) 
J Med Chem 49 (24), 6987-7001 (2006)

>  <Pubmed ID>  (1) 
17125252

>  <DOI>  (1) 
10.1021/jm060519r

$$$$
