4wnv_ligand_191
     RDKit          2D

 25 27  0  0  0  0  0  0  0  0999 V2000
    0.0000   -0.0000   -0.0000 F   0  0  0  0  0  0  0  0  0  0  0  0
   -1.3078   -0.7490   -0.0000 C   0  0  0  0  0  0  0  0  0  0  0  0
   -1.3197   -2.2351   -0.0000 C   0  0  0  0  0  0  0  0  0  0  0  0
   -2.6275    0.0119   -0.0000 C   0  0  0  0  0  0  0  0  0  0  0  0
   -2.6275   -2.9723   -0.0000 C   0  0  0  0  0  0  0  0  0  0  0  0
   -3.9234   -0.7371   -0.0000 C   0  0  0  0  0  0  0  0  0  0  0  0
   -3.9353   -2.2114   -0.0000 C   0  0  0  0  0  0  0  0  0  0  0  0
   -5.2430   -2.9485   -0.0000 C   0  0  0  0  0  0  0  0  0  0  0  0
   -6.5627   -2.1876   -0.0000 O   0  0  0  0  0  0  0  0  0  0  0  0
   -5.2549   -4.4346   -0.0000 C   0  0  0  0  0  0  0  0  0  0  0  0
   -6.5746   -0.6777   -0.0000 C   0  0  0  0  0  0  0  0  0  0  0  0
   -6.5627   -5.1717   -0.0000 C   0  0  0  0  0  0  0  0  0  0  0  0
   -3.9590   -5.1717   -0.0000 C   0  0  0  0  0  0  0  0  0  0  0  0
   -7.8824    0.0832   -0.0000 O   0  0  0  0  0  0  0  0  0  0  0  0
   -7.8705   -4.4108   -0.0000 C   0  0  0  0  0  0  0  0  0  0  0  0
   -6.5746   -6.6697   -0.0000 C   0  0  0  0  0  0  0  0  0  0  0  0
   -3.9709   -6.6578   -0.0000 N   0  0  0  0  0  0  0  0  0  0  0  0
   -7.8943    1.5931   -0.0000 C   0  0  0  0  0  0  0  0  0  0  0  0
   -9.1783   -5.1479   -0.0000 C   0  0  0  0  0  0  0  0  0  0  0  0
   -7.8943   -7.4068   -0.0000 C   0  0  0  0  0  0  0  0  0  0  0  0
   -2.7582   -7.5138   -0.0000 N   0  0  0  0  0  0  0  0  0  0  0  0
   -5.1836   -7.5257   -0.0000 C   0  0  0  0  0  0  0  0  0  0  0  0
   -9.1902   -6.6460   -0.0000 C   0  0  0  0  0  0  0  0  0  0  0  0
   -3.2338   -8.9286   -0.0000 N   0  0  0  0  0  0  0  0  0  0  0  0
   -4.7318   -8.9405   -0.0000 C   0  0  0  0  0  0  0  0  0  0  0  0
  1  2  1  0
  2  3  2  0
  2  4  1  0
  3  5  1  0
  4  6  2  0
  5  7  2  0
  7  8  1  0
  8  9  1  6
  8 10  1  0
  9 11  1  0
 10 12  1  0
 10 13  1  6
 11 14  1  0
 12 15  2  0
 12 16  1  0
 13 17  1  0
 14 18  1  0
 15 19  1  0
 16 20  2  0
 17 21  1  0
 17 22  1  0
 19 23  2  0
 21 24  2  0
 22 25  2  0
  6  7  1  0
 20 23  1  0
 24 25  1  0
M  END
>  <MolRegNo>  (1) 
1589898

>  <m>  (1) 
=

>  <Value>  (1) 
80

>  <Unit>  (1) 
nM

>  <Type>  (1) 
Ki

>  <pValue>  (1) 
7.1

>  <Ligand Efficiency>  (1) 
0.39

>  <Binding Efficiency>  (1) 
20.79

>  <Surface Efficiency>  (1) 
14.43

>  <Assay Index>  (1) 
803886

>  <Assay Category>  (1) 


>  <Assay Organism>  (1) 
Homo sapiens

>  <Target ID>  (1) 
65

>  <Target Name>  (1) 
Cytochrome P450 19A1

>  <Target Organism>  (1) 
Homo sapiens

>  <Target Description>  (1) 
Target is a single protein chain

>  <Sequence Accession>  (1) 
P11511

>  <Reference>  (1) 
Bioorg Med Chem Lett 23 (22), 6060-6063 (2013)

>  <Pubmed ID>  (1) 
24113062

>  <DOI>  (1) 
10.1016/j.bmcl.2013.09.030

$$$$
