4wnv_ligand_137
     RDKit          2D

 14 15  0  0  0  0  0  0  0  0999 V2000
    0.0000   -0.0000   -0.0000 S   0  0  0  0  0  0  0  0  0  0  0  0
   -1.4962   -0.2256   -0.0000 C   0  0  0  0  0  0  0  0  0  0  0  0
    0.9381   -1.1519   -0.0000 C   0  0  0  0  0  0  0  0  0  0  0  0
   -2.0425   -1.6150   -0.0000 C   0  0  0  0  0  0  0  0  0  0  0  0
   -3.5031   -1.9950   -0.0000 O   0  0  0  0  0  0  0  0  0  0  0  0
   -1.2350   -2.8619   -0.0000 C   0  0  0  0  0  0  0  0  0  0  0  0
   -3.5981   -3.4675   -0.0000 C   0  0  0  0  0  0  0  0  0  0  0  0
   -2.1850   -4.0137   -0.0000 C   0  0  0  0  0  0  0  0  0  0  0  0
   -4.8687   -4.2750   -0.0000 C   0  0  0  0  0  0  0  0  0  0  0  0
   -4.8806   -5.7712   -0.0000 C   0  0  0  0  0  0  0  0  0  0  0  0
   -6.1750   -3.5150   -0.0000 C   0  0  0  0  0  0  0  0  0  0  0  0
   -6.1987   -6.5075   -0.0000 N   0  0  0  0  0  0  0  0  0  0  0  0
   -7.4812   -4.2512   -0.0000 C   0  0  0  0  0  0  0  0  0  0  0  0
   -7.5050   -5.7475   -0.0000 C   0  0  0  0  0  0  0  0  0  0  0  0
  1  2  1  0
  1  3  1  0
  2  4  1  0
  4  5  1  0
  4  6  2  0
  5  7  1  0
  6  8  1  0
  7  9  1  0
  9 10  2  0
  9 11  1  0
 10 12  1  0
 11 13  2  0
 12 14  2  0
  7  8  2  0
 13 14  1  0
M  END
>  <MolRegNo>  (1) 
361848

>  <m>  (1) 
=

>  <Value>  (1) 
64500

>  <Unit>  (1) 
nM

>  <Type>  (1) 
Ki

>  <pValue>  (1) 
4.19

>  <Ligand Efficiency>  (1) 
0

>  <Binding Efficiency>  (1) 
0

>  <Surface Efficiency>  (1) 
0

>  <Assay Index>  (1) 
269558

>  <Assay Category>  (1) 


>  <Assay Organism>  (1) 
Homo sapiens

>  <Target ID>  (1) 
11365

>  <Target Name>  (1) 
Cytochrome P450 2D6

>  <Target Organism>  (1) 
Homo sapiens

>  <Target Description>  (1) 
Target is a single protein chain

>  <Sequence Accession>  (1) 
P10635

>  <Reference>  (1) 
J Med Chem 49 (24), 6987-7001 (2006)

>  <Pubmed ID>  (1) 
17125252

>  <DOI>  (1) 
10.1021/jm060519r

$$$$
