4wnv_ligand_88
     RDKit          2D

 28 31  0  0  1  0  0  0  0  0999 V2000
    0.0000   -0.0000   -0.0000 O   0  0  0  0  0  0  0  0  0  0  0  0
   -0.4851   -1.3961   -0.0000 C   0  0  0  0  0  0  0  0  0  0  0  0
   -1.9404   -1.8339   -0.0000 C   0  0  0  0  0  0  0  0  0  0  0  0
    0.3786   -2.6148   -0.0000 C   0  0  0  0  0  0  0  0  0  0  0  0
   -1.9641   -3.3129   -0.0000 C   0  0  0  0  0  0  0  0  0  0  0  0
   -3.2537   -1.0649   -0.0000 C   0  0  0  0  0  0  0  0  0  0  0  0
   -1.9522   -0.3313   -0.0000 C   0  0  0  0  0  0  0  0  0  0  0  0
   -0.5324   -3.8098   -0.0000 C   0  0  0  0  0  0  0  0  0  0  0  0
   -3.2774   -4.0583   -0.0000 C   0  0  0  0  0  0  0  0  0  0  0  0
   -4.5670   -1.7984   -0.0000 C   0  0  0  0  0  0  0  0  0  0  0  0
   -4.5907   -3.2892   -0.0000 C   0  0  0  0  0  0  0  0  0  0  0  0
   -3.2774   -5.5372   -0.0000 C   0  0  0  0  0  0  0  0  0  0  0  0
   -5.8922   -4.0464   -0.0000 C   0  0  0  0  0  0  0  0  0  0  0  0
   -4.5907   -6.2708   -0.0000 C   0  0  0  0  0  0  0  0  0  0  0  0
   -5.8922   -5.5372   -0.0000 C   0  0  0  0  0  0  0  0  0  0  0  0
   -7.1937   -3.2892   -0.0000 C   0  0  0  0  0  0  0  0  0  0  0  0
   -5.9040   -2.5438   -0.0000 C   0  0  0  0  0  0  0  0  0  0  0  0
   -4.6025   -7.7498   -0.0000 C   0  0  0  0  0  0  0  0  0  0  0  0
   -7.2055   -6.2590   -0.0000 C   0  0  0  0  0  0  0  0  0  0  0  0
   -8.4952   -4.0228   -0.0000 C   0  0  0  0  0  0  0  0  0  0  0  0
   -5.9040   -8.4952   -0.0000 C   0  0  0  0  0  0  0  0  0  0  0  0
   -8.5070   -5.5017   -0.0000 C   0  0  0  0  0  0  0  0  0  0  0  0
   -7.2055   -7.7379   -0.0000 C   0  0  0  0  0  0  0  0  0  0  0  0
   -8.5070   -8.4833   -0.0000 C   0  0  0  0  0  0  0  0  0  0  0  0
   -9.8085   -7.7261   -0.0000 C   0  0  0  0  0  0  0  0  0  0  0  0
  -11.1100   -8.4597   -0.0000 C   0  0  0  0  0  0  0  0  0  0  0  0
  -12.4233   -7.7024   -0.0000 C   0  0  0  0  0  0  0  0  0  0  0  0
  -13.7248   -8.4478   -0.0000 C   0  0  0  0  0  0  0  0  0  0  0  0
  1  2  2  0
  2  3  1  0
  2  4  1  0
  3  5  1  0
  3  6  1  0
  3  7  1  0
  4  8  1  0
  5  9  1  0
  6 10  1  0
  9 11  1  0
  9 12  1  0
 11 13  1  0
 12 14  1  0
 13 15  1  0
 13 16  1  0
 13 17  1  0
 14 18  1  1
 15 19  2  0
 16 20  1  0
 18 21  1  0
 19 22  1  0
 21 23  1  0
 23 24  1  0
 24 25  1  0
 25 26  1  0
 26 27  1  0
 27 28  1  0
  5  8  1  0
 10 11  1  0
 14 15  1  0
 20 22  1  0
M  END
>  <MolRegNo>  (1) 
114256

>  <m>  (1) 
=

>  <Value>  (1) 
2600

>  <Unit>  (1) 
nM

>  <Type>  (1) 
Ki

>  <pValue>  (1) 
5.58

>  <Ligand Efficiency>  (1) 
0.27

>  <Binding Efficiency>  (1) 
14.52

>  <Surface Efficiency>  (1) 
32.72

>  <Assay Index>  (1) 
51103

>  <Assay Category>  (1) 


>  <Assay Organism>  (1) 


>  <Target ID>  (1) 
65

>  <Target Name>  (1) 
Cytochrome P450 19A1

>  <Target Organism>  (1) 
Homo sapiens

>  <Target Description>  (1) 
Target is a single protein chain

>  <Sequence Accession>  (1) 
P11511

>  <Reference>  (1) 
J Med Chem 39 (11), 2245-2252 (1996)

>  <Pubmed ID>  (1) 
8667367

>  <DOI>  (1) 
10.1021/jm960047o

$$$$
