4wnv_ligand_43
     RDKit          2D

 28 32  0  0  1  0  0  0  0  0999 V2000
    0.0000   -0.0000   -0.0000 O   0  0  0  0  0  0  0  0  0  0  0  0
    1.2908    0.7697   -0.0000 C   0  0  0  0  0  0  0  0  0  0  0  0
    2.5815    0.0237   -0.0000 C   0  0  0  0  0  0  0  0  0  0  0  0
    1.2789    2.2855   -0.0000 C   0  0  0  0  0  0  0  0  0  0  0  0
    3.8723    0.7934   -0.0000 C   0  0  0  0  0  0  0  0  0  0  0  0
    2.5697    3.0434   -0.0000 C   0  0  0  0  0  0  0  0  0  0  0  0
    3.8604    2.3092   -0.0000 C   0  0  0  0  0  0  0  0  0  0  0  0
    5.1630    0.0474   -0.0000 C   0  0  0  0  0  0  0  0  0  0  0  0
    5.1512    3.0670   -0.0000 C   0  0  0  0  0  0  0  0  0  0  0  0
    3.8486    3.8249   -0.0000 C   0  0  0  0  0  0  0  0  0  0  0  0
    6.4656    0.8171   -0.0000 C   0  0  0  0  0  0  0  0  0  0  0  0
    6.4538    2.3210   -0.0000 C   0  0  0  0  0  0  0  0  0  0  0  0
    5.1394    4.5828   -0.0000 C   0  0  0  0  0  0  0  0  0  0  0  0
    7.7564    0.0711   -0.0000 C   0  0  0  0  0  0  0  0  0  0  0  0
    7.7446    3.0907   -0.0000 C   0  0  0  0  0  0  0  0  0  0  0  0
    6.4420    5.3407   -0.0000 C   0  0  0  0  0  0  0  0  0  0  0  0
    7.7446   -1.4210   -0.0000 C   0  0  0  0  0  0  0  0  0  0  0  0
    7.7327    4.5946   -0.0000 C   0  0  0  0  0  0  0  0  0  0  0  0
    9.1537    2.6407   -0.0000 C   0  0  0  0  0  0  0  0  0  0  0  0
    6.4301   -2.1552   -0.0000 C   0  0  0  0  0  0  0  0  0  0  0  0
    9.0353   -2.1552   -0.0000 C   0  0  0  0  0  0  0  0  0  0  0  0
    9.1419    5.0801   -0.0000 C   0  0  0  0  0  0  0  0  0  0  0  0
    7.7090    6.1104   -0.0000 C   0  0  0  0  0  0  0  0  0  0  0  0
   10.0182    3.8723   -0.0000 C   0  0  0  0  0  0  0  0  0  0  0  0
    6.4183   -3.6473   -0.0000 C   0  0  0  0  0  0  0  0  0  0  0  0
    9.0235   -3.6473   -0.0000 C   0  0  0  0  0  0  0  0  0  0  0  0
    9.6037    6.5130   -0.0000 O   0  0  0  0  0  0  0  0  0  0  0  0
    7.7090   -4.3933   -0.0000 C   0  0  0  0  0  0  0  0  0  0  0  0
  1  2  2  0
  2  3  1  0
  2  4  1  0
  3  5  2  0
  4  6  1  0
  5  7  1  0
  5  8  1  0
  7  9  1  0
  7 10  1  1
  8 11  1  0
 12  9  1  0
  9 13  1  1
 11 14  1  6
 12 15  1  0
 13 16  1  0
 14 17  1  0
 15 18  1  0
 15 19  1  1
 17 20  2  0
 17 21  1  0
 18 22  1  0
 18 23  1  1
 19 24  1  0
 20 25  1  0
 21 26  2  0
 22 27  2  0
 25 28  2  0
  6  7  1  0
 12 11  1  6
 16 18  1  0
 22 24  1  0
 26 28  1  0
M  END
>  <MolRegNo>  (1) 
1798161

>  <m>  (1) 
=

>  <Value>  (1) 
13.1

>  <Unit>  (1) 
nM

>  <Type>  (1) 
Ki

>  <pValue>  (1) 
7.88

>  <Ligand Efficiency>  (1) 
0.38

>  <Binding Efficiency>  (1) 
20.93

>  <Surface Efficiency>  (1) 
23.09

>  <Assay Index>  (1) 
36121

>  <Assay Category>  (1) 


>  <Assay Organism>  (1) 


>  <Target ID>  (1) 
65

>  <Target Name>  (1) 
Cytochrome P450 19A1

>  <Target Organism>  (1) 
Homo sapiens

>  <Target Description>  (1) 
Target is a single protein chain

>  <Sequence Accession>  (1) 
P11511

>  <Reference>  (1) 
Bioorg Med Chem Lett 5 (21), 2513-2516 (1995)

>  <Pubmed ID>  (1) 


>  <DOI>  (1) 
10.1016/0960-894X(95)00440-5

$$$$
