4wnv_ligand_378
     RDKit          2D

 21 24  0  0  1  0  0  0  0  0999 V2000
    0.0000   -0.0000   -0.0000 O   0  0  0  0  0  0  0  0  0  0  0  0
    1.2983    0.7694   -0.0000 C   0  0  0  0  0  0  0  0  0  0  0  0
    1.2863    2.2720   -0.0000 C   0  0  0  0  0  0  0  0  0  0  0  0
    2.5725    0.0481   -0.0000 C   0  0  0  0  0  0  0  0  0  0  0  0
    2.5605    3.0413   -0.0000 C   0  0  0  0  0  0  0  0  0  0  0  0
   -0.0481    3.0413   -0.0000 C   0  0  0  0  0  0  0  0  0  0  0  0
    3.8468    0.7814   -0.0000 C   0  0  0  0  0  0  0  0  0  0  0  0
    3.8347    2.3081   -0.0000 C   0  0  0  0  0  0  0  0  0  0  0  0
    5.1210    0.0481   -0.0000 C   0  0  0  0  0  0  0  0  0  0  0  0
    5.1330    3.0534   -0.0000 C   0  0  0  0  0  0  0  0  0  0  0  0
    6.4193    0.8174   -0.0000 C   0  0  0  0  0  0  0  0  0  0  0  0
    6.4073    2.3201   -0.0000 C   0  0  0  0  0  0  0  0  0  0  0  0
    5.1210    4.5680   -0.0000 C   0  0  0  0  0  0  0  0  0  0  0  0
    7.6935    3.0894   -0.0000 C   0  0  0  0  0  0  0  0  0  0  0  0
    6.3952    5.3374   -0.0000 C   0  0  0  0  0  0  0  0  0  0  0  0
    7.6815    4.6281   -0.0000 C   0  0  0  0  0  0  0  0  0  0  0  0
    9.1240    2.6326   -0.0000 C   0  0  0  0  0  0  0  0  0  0  0  0
    9.1120    5.0970   -0.0000 C   0  0  0  0  0  0  0  0  0  0  0  0
    7.6695    6.1308   -0.0000 C   0  0  0  0  0  0  0  0  0  0  0  0
   10.0136    3.8708   -0.0000 C   0  0  0  0  0  0  0  0  0  0  0  0
    9.5688    6.5395   -0.0000 O   0  0  0  0  0  0  0  0  0  0  0  0
  1  2  1  0
  2  3  2  0
  2  4  1  0
  3  5  1  0
  3  6  1  0
  4  7  2  0
  5  8  2  0
  7  9  1  0
  8 10  1  0
  9 11  1  0
 10 12  1  0
 10 13  1  1
 12 14  1  0
 13 15  1  0
 14 16  1  0
 14 17  1  1
 16 18  1  0
 16 19  1  1
 17 20  1  0
 18 21  1  1
  7  8  1  0
 12 11  1  6
 15 16  1  0
 18 20  1  0
M  END
>  <MolRegNo>  (1) 
388017

>  <m>  (1) 
=

>  <Value>  (1) 
100

>  <Unit>  (1) 
nM

>  <Type>  (1) 
Ki

>  <pValue>  (1) 
7

>  <Ligand Efficiency>  (1) 
0.46

>  <Binding Efficiency>  (1) 
24.44

>  <Surface Efficiency>  (1) 
17.3

>  <Assay Index>  (1) 
985353

>  <Assay Category>  (1) 


>  <Assay Organism>  (1) 
Homo sapiens

>  <Target ID>  (1) 
65

>  <Target Name>  (1) 
Cytochrome P450 19A1

>  <Target Organism>  (1) 
Homo sapiens

>  <Target Description>  (1) 
Target is a single protein chain

>  <Sequence Accession>  (1) 
P11511

>  <Reference>  (1) 


>  <Pubmed ID>  (1) 
26469743

>  <DOI>  (1) 
10.1016/j.ejmech.2015.09.038

$$$$
