4wnv_ligand_139
     RDKit          2D

 16 17  0  0  0  0  0  0  0  0999 V2000
    0.0000   -0.0000   -0.0000 S   0  0  0  0  0  0  0  0  0  0  0  0
    0.5218    1.4113   -0.0000 C   0  0  0  0  0  0  0  0  0  0  0  0
   -1.4943   -0.2253   -0.0000 C   0  0  0  0  0  0  0  0  0  0  0  0
   -0.4388    2.5853   -0.0000 O   0  0  0  0  0  0  0  0  0  0  0  0
    1.9924    1.6603   -0.0000 C   0  0  0  0  0  0  0  0  0  0  0  0
   -2.0398   -1.6129   -0.0000 C   0  0  0  0  0  0  0  0  0  0  0  0
   -3.4985   -1.9924   -0.0000 O   0  0  0  0  0  0  0  0  0  0  0  0
   -1.2334   -2.8581   -0.0000 C   0  0  0  0  0  0  0  0  0  0  0  0
   -3.5934   -3.4629   -0.0000 C   0  0  0  0  0  0  0  0  0  0  0  0
   -2.1821   -4.0085   -0.0000 C   0  0  0  0  0  0  0  0  0  0  0  0
   -4.8623   -4.2694   -0.0000 C   0  0  0  0  0  0  0  0  0  0  0  0
   -4.8742   -5.7637   -0.0000 C   0  0  0  0  0  0  0  0  0  0  0  0
   -6.1669   -3.5104   -0.0000 C   0  0  0  0  0  0  0  0  0  0  0  0
   -6.1906   -6.4989   -0.0000 N   0  0  0  0  0  0  0  0  0  0  0  0
   -7.4714   -4.2457   -0.0000 C   0  0  0  0  0  0  0  0  0  0  0  0
   -7.4951   -5.7399   -0.0000 C   0  0  0  0  0  0  0  0  0  0  0  0
  1  2  1  0
  1  3  1  0
  2  4  2  0
  2  5  1  0
  3  6  1  0
  6  7  1  0
  6  8  2  0
  7  9  1  0
  8 10  1  0
  9 11  1  0
 11 12  2  0
 11 13  1  0
 12 14  1  0
 13 15  2  0
 14 16  2  0
  9 10  2  0
 15 16  1  0
M  END
>  <MolRegNo>  (1) 
361833

>  <m>  (1) 
=

>  <Value>  (1) 
45400

>  <Unit>  (1) 
nM

>  <Type>  (1) 
Ki

>  <pValue>  (1) 
4.34

>  <Ligand Efficiency>  (1) 
0

>  <Binding Efficiency>  (1) 
0

>  <Surface Efficiency>  (1) 
0

>  <Assay Index>  (1) 
269558

>  <Assay Category>  (1) 


>  <Assay Organism>  (1) 
Homo sapiens

>  <Target ID>  (1) 
11365

>  <Target Name>  (1) 
Cytochrome P450 2D6

>  <Target Organism>  (1) 
Homo sapiens

>  <Target Description>  (1) 
Target is a single protein chain

>  <Sequence Accession>  (1) 
P10635

>  <Reference>  (1) 
J Med Chem 49 (24), 6987-7001 (2006)

>  <Pubmed ID>  (1) 
17125252

>  <DOI>  (1) 
10.1021/jm060519r

$$$$
