4wnv_ligand_376
     RDKit          2D

 21 24  0  0  0  0  0  0  0  0999 V2000
    0.0000   -0.0000   -0.0000 Cl  0  0  0  0  0  0  0  0  0  0  0  0
    1.0478   -0.5958   -0.0000 C   0  0  0  0  0  0  0  0  0  0  0  0
    1.0272   -2.0750   -0.0000 C   0  0  0  0  0  0  0  0  0  0  0  0
    2.3010    0.1644   -0.0000 C   0  0  0  0  0  0  0  0  0  0  0  0
   -0.0822   -2.6708   -0.0000 O   0  0  0  0  0  0  0  0  0  0  0  0
    2.3010   -2.8146   -0.0000 C   0  0  0  0  0  0  0  0  0  0  0  0
    3.5953   -0.5342   -0.0000 C   0  0  0  0  0  0  0  0  0  0  0  0
    3.5748   -2.0134   -0.0000 C   0  0  0  0  0  0  0  0  0  0  0  0
    4.8691    0.2260   -0.0000 C   0  0  0  0  0  0  0  0  0  0  0  0
    4.8691   -2.7530   -0.0000 C   0  0  0  0  0  0  0  0  0  0  0  0
    6.1429   -0.4725   -0.0000 C   0  0  0  0  0  0  0  0  0  0  0  0
    4.8280    1.7668   -0.0000 C   0  0  0  0  0  0  0  0  0  0  0  0
    6.1429   -1.9517   -0.0000 C   0  0  0  0  0  0  0  0  0  0  0  0
    7.4166    0.2876   -0.0000 C   0  0  0  0  0  0  0  0  0  0  0  0
    6.1018    2.5475   -0.0000 C   0  0  0  0  0  0  0  0  0  0  0  0
    7.3961    1.8079   -0.0000 C   0  0  0  0  0  0  0  0  0  0  0  0
   10.0053    0.2876   -0.0000 C   0  0  0  0  0  0  0  0  0  0  0  0
    8.6699    2.6092   -0.0000 C   0  0  0  0  0  0  0  0  0  0  0  0
    7.3755    3.0817   -0.0000 C   0  0  0  0  0  0  0  0  0  0  0  0
    9.9847    1.8490   -0.0000 C   0  0  0  0  0  0  0  0  0  0  0  0
    8.6493    3.8829   -0.0000 O   0  0  0  0  0  0  0  0  0  0  0  0
  1  2  1  0
  2  3  2  0
  2  4  1  0
  3  5  1  0
  3  6  1  0
  4  7  2  0
  6  8  2  0
  7  9  1  0
  8 10  1  0
  9 11  1  0
  9 12  1  1
 10 13  1  0
 11 14  1  0
 12 15  1  0
 14 16  1  0
 14 17  1  1
 16 18  1  0
 16 19  1  1
 17 20  1  0
 18 21  1  1
  7  8  1  0
 11 13  1  6
 15 16  1  0
 18 20  1  0
M  END
>  <MolRegNo>  (1) 
2058277

>  <m>  (1) 
=

>  <Value>  (1) 
100

>  <Unit>  (1) 
nM

>  <Type>  (1) 
Ki

>  <pValue>  (1) 
7

>  <Ligand Efficiency>  (1) 
0.46

>  <Binding Efficiency>  (1) 
22.81

>  <Surface Efficiency>  (1) 
17.3

>  <Assay Index>  (1) 
985353

>  <Assay Category>  (1) 


>  <Assay Organism>  (1) 
Homo sapiens

>  <Target ID>  (1) 
65

>  <Target Name>  (1) 
Cytochrome P450 19A1

>  <Target Organism>  (1) 
Homo sapiens

>  <Target Description>  (1) 
Target is a single protein chain

>  <Sequence Accession>  (1) 
P11511

>  <Reference>  (1) 


>  <Pubmed ID>  (1) 
26469743

>  <DOI>  (1) 
10.1016/j.ejmech.2015.09.038

$$$$
