4wnv_ligand_385
     RDKit          2D

 22 24  0  0  0  0  0  0  0  0999 V2000
    0.0000   -0.0000   -0.0000 Cl  0  0  0  0  0  0  0  0  0  0  0  0
    1.2940    0.7717   -0.0000 C   0  0  0  0  0  0  0  0  0  0  0  0
    1.2822    2.2913   -0.0000 C   0  0  0  0  0  0  0  0  0  0  0  0
    2.5999    0.0356   -0.0000 C   0  0  0  0  0  0  0  0  0  0  0  0
    2.5762    3.0511   -0.0000 C   0  0  0  0  0  0  0  0  0  0  0  0
    3.8821    0.8073   -0.0000 C   0  0  0  0  0  0  0  0  0  0  0  0
    3.8584    2.3032   -0.0000 C   0  0  0  0  0  0  0  0  0  0  0  0
    5.1524    3.0630   -0.0000 C   0  0  0  0  0  0  0  0  0  0  0  0
    5.1405    4.5826   -0.0000 C   0  0  0  0  0  0  0  0  0  0  0  0
    6.4464    2.3269   -0.0000 C   0  0  0  0  0  0  0  0  0  0  0  0
    6.4346    5.3424   -0.0000 C   0  0  0  0  0  0  0  0  0  0  0  0
    6.4346    0.8310   -0.0000 N   0  0  0  0  0  0  0  0  0  0  0  0
    6.4227    6.8620   -0.0000 C   0  0  0  0  0  0  0  0  0  0  0  0
    7.7286    4.6063   -0.0000 C   0  0  0  0  0  0  0  0  0  0  0  0
    7.6455   -0.0356   -0.0000 N   0  0  0  0  0  0  0  0  0  0  0  0
    5.2118   -0.0475   -0.0000 C   0  0  0  0  0  0  0  0  0  0  0  0
    7.7049    7.6218   -0.0000 C   0  0  0  0  0  0  0  0  0  0  0  0
    9.0227    5.3661   -0.0000 C   0  0  0  0  0  0  0  0  0  0  0  0
    7.1706   -1.4602   -0.0000 N   0  0  0  0  0  0  0  0  0  0  0  0
    5.6629   -1.4602   -0.0000 C   0  0  0  0  0  0  0  0  0  0  0  0
    8.9989    6.8857   -0.0000 C   0  0  0  0  0  0  0  0  0  0  0  0
   10.2811    7.6574   -0.0000 Cl  0  0  0  0  0  0  0  0  0  0  0  0
  1  2  1  0
  2  3  2  0
  2  4  1  0
  3  5  1  0
  4  6  2  0
  5  7  2  0
  7  8  1  0
  8  9  2  0
  8 10  1  0
  9 11  1  0
 10 12  1  0
 11 13  2  0
 11 14  1  0
 12 15  1  0
 12 16  1  0
 13 17  1  0
 14 18  2  0
 15 19  2  0
 16 20  2  0
 17 21  2  0
 21 22  1  0
  6  7  1  0
 18 21  1  0
 19 20  1  0
M  END
>  <MolRegNo>  (1) 
2348588

>  <m>  (1) 
=

>  <Value>  (1) 
8

>  <Unit>  (1) 
nM

>  <Type>  (1) 
Ki

>  <pValue>  (1) 
8.1

>  <Ligand Efficiency>  (1) 
0.5

>  <Binding Efficiency>  (1) 
24.52

>  <Surface Efficiency>  (1) 
26.37

>  <Assay Index>  (1) 
1255696

>  <Assay Category>  (1) 


>  <Assay Organism>  (1) 
Homo sapiens

>  <Target ID>  (1) 
65

>  <Target Name>  (1) 
Cytochrome P450 19A1

>  <Target Organism>  (1) 
Homo sapiens

>  <Target Description>  (1) 
Target is a single protein chain

>  <Sequence Accession>  (1) 
P11511

>  <Reference>  (1) 
Bioorg Med Chem Lett 29 (11), 1395-1398 (2019)

>  <Pubmed ID>  (1) 
30952594

>  <DOI>  (1) 
10.1016/j.bmcl.2019.03.033

$$$$
