4wnv_ligand_65
     RDKit          2D

 24 27  0  0  1  0  0  0  0  0999 V2000
    0.0000   -0.0000   -0.0000 O   0  0  0  0  0  0  0  0  0  0  0  0
    0.0000    1.5172   -0.0000 C   0  0  0  0  0  0  0  0  0  0  0  0
   -1.3149   -0.7333   -0.0000 C   0  0  0  0  0  0  0  0  0  0  0  0
    1.2770    2.2632   -0.0000 C   0  0  0  0  0  0  0  0  0  0  0  0
   -1.3149    2.2885   -0.0000 C   0  0  0  0  0  0  0  0  0  0  0  0
    1.2770    3.7678   -0.0000 C   0  0  0  0  0  0  0  0  0  0  0  0
   -1.3149    3.7931   -0.0000 C   0  0  0  0  0  0  0  0  0  0  0  0
   -0.0253    4.5390   -0.0000 C   0  0  0  0  0  0  0  0  0  0  0  0
    2.5666    4.5264   -0.0000 C   0  0  0  0  0  0  0  0  0  0  0  0
   -0.0379    6.0563   -0.0000 N   0  0  0  0  0  0  0  0  0  0  0  0
    2.5793    6.0436   -0.0000 C   0  0  0  0  0  0  0  0  0  0  0  0
    3.8436    3.7678   -0.0000 C   0  0  0  0  0  0  0  0  0  0  0  0
    1.2644    6.8022   -0.0000 C   0  0  0  0  0  0  0  0  0  0  0  0
    3.8184    2.2758   -0.0000 O   0  0  0  0  0  0  0  0  0  0  0  0
    5.1459    4.5264   -0.0000 C   0  0  0  0  0  0  0  0  0  0  0  0
    6.5747    5.1712   -0.0000 N   0  0  0  0  0  0  0  0  0  0  0  0
    5.3229    3.1862   -0.0000 C   0  0  0  0  0  0  0  0  0  0  0  0
    7.8770    4.5896   -0.0000 C   0  0  0  0  0  0  0  0  0  0  0  0
    6.6252    6.7896   -0.0000 C   0  0  0  0  0  0  0  0  0  0  0  0
    6.8149    3.8436   -0.0000 C   0  0  0  0  0  0  0  0  0  0  0  0
    8.1298    3.2368   -0.0000 C   0  0  0  0  0  0  0  0  0  0  0  0
    7.0425    5.7149   -0.0000 C   0  0  0  0  0  0  0  0  0  0  0  0
    8.1045    1.7575   -0.0000 C   0  0  0  0  0  0  0  0  0  0  0  0
    9.3942    1.0115   -0.0000 C   0  0  0  0  0  0  0  0  0  0  0  0
  1  2  1  0
  1  3  1  0
  2  4  2  0
  2  5  1  0
  4  6  1  0
  5  7  2  0
  6  8  2  0
  6  9  1  0
  8 10  1  0
  9 11  2  0
  9 12  1  0
 10 13  2  0
 12 14  1  1
 12 15  1  0
 15 16  1  0
 15 17  1  1
 16 18  1  0
 16 19  1  0
 20 17  1  6
 18 21  1  0
 19 22  1  0
 21 23  1  6
 23 24  2  0
  7  8  1  0
 11 13  1  0
 20 21  1  0
 20 22  1  0
M  END
>  <MolRegNo>  (1) 
255477

>  <m>  (1) 
=

>  <Value>  (1) 
80

>  <Unit>  (1) 
nM

>  <Type>  (1) 
Ki

>  <pValue>  (1) 
7.1

>  <Ligand Efficiency>  (1) 
0

>  <Binding Efficiency>  (1) 
0

>  <Surface Efficiency>  (1) 
0

>  <Assay Index>  (1) 
122804

>  <Assay Category>  (1) 


>  <Assay Organism>  (1) 
Homo sapiens

>  <Target ID>  (1) 
11365

>  <Target Name>  (1) 
Cytochrome P450 2D6

>  <Target Organism>  (1) 
Homo sapiens

>  <Target Description>  (1) 
Target is a single protein chain

>  <Sequence Accession>  (1) 
P10635

>  <Reference>  (1) 
J Med Chem 36 (9), 1136-1145 (1993)

>  <Pubmed ID>  (1) 
8487254

>  <DOI>  (1) 
10.1021/jm00061a004

$$$$
