4wnv_ligand_386
     RDKit          2D

 21 23  0  0  0  0  0  0  0  0999 V2000
    0.0000   -0.0000   -0.0000 Cl  0  0  0  0  0  0  0  0  0  0  0  0
    1.2877    0.7631   -0.0000 C   0  0  0  0  0  0  0  0  0  0  0  0
    1.2758    2.2774   -0.0000 C   0  0  0  0  0  0  0  0  0  0  0  0
    2.5874    0.0238   -0.0000 C   0  0  0  0  0  0  0  0  0  0  0  0
    2.5635    3.0405   -0.0000 C   0  0  0  0  0  0  0  0  0  0  0  0
    3.8751    0.7869   -0.0000 C   0  0  0  0  0  0  0  0  0  0  0  0
    3.8513    2.2893   -0.0000 C   0  0  0  0  0  0  0  0  0  0  0  0
    5.1390    3.0524   -0.0000 C   0  0  0  0  0  0  0  0  0  0  0  0
    5.1271    4.5667   -0.0000 C   0  0  0  0  0  0  0  0  0  0  0  0
    6.4267    2.3131   -0.0000 C   0  0  0  0  0  0  0  0  0  0  0  0
    6.4148    5.3297   -0.0000 C   0  0  0  0  0  0  0  0  0  0  0  0
    6.4148    0.8227   -0.0000 N   0  0  0  0  0  0  0  0  0  0  0  0
    7.7025    4.5905   -0.0000 C   0  0  0  0  0  0  0  0  0  0  0  0
    6.4029    6.8559   -0.0000 C   0  0  0  0  0  0  0  0  0  0  0  0
    7.6310   -0.0477   -0.0000 N   0  0  0  0  0  0  0  0  0  0  0  0
    5.1986   -0.0596   -0.0000 C   0  0  0  0  0  0  0  0  0  0  0  0
    9.0021    5.3536   -0.0000 C   0  0  0  0  0  0  0  0  0  0  0  0
    7.6906    7.6190   -0.0000 C   0  0  0  0  0  0  0  0  0  0  0  0
    7.1540   -1.4666   -0.0000 N   0  0  0  0  0  0  0  0  0  0  0  0
    5.6517   -1.4785   -0.0000 C   0  0  0  0  0  0  0  0  0  0  0  0
    8.9902    6.8798   -0.0000 C   0  0  0  0  0  0  0  0  0  0  0  0
  1  2  1  0
  2  3  2  0
  2  4  1  0
  3  5  1  0
  4  6  2  0
  5  7  2  0
  7  8  1  0
  8  9  2  0
  8 10  1  0
  9 11  1  0
 10 12  1  0
 11 13  2  0
 11 14  1  0
 12 15  1  0
 12 16  1  0
 13 17  1  0
 14 18  2  0
 15 19  2  0
 16 20  2  0
 17 21  2  0
  6  7  1  0
 18 21  1  0
 19 20  1  0
M  END
>  <MolRegNo>  (1) 
2432084

>  <m>  (1) 
=

>  <Value>  (1) 
57

>  <Unit>  (1) 
nM

>  <Type>  (1) 
Ki

>  <pValue>  (1) 
7.24

>  <Ligand Efficiency>  (1) 
0.47

>  <Binding Efficiency>  (1) 
24.49

>  <Surface Efficiency>  (1) 
23.59

>  <Assay Index>  (1) 
1255696

>  <Assay Category>  (1) 


>  <Assay Organism>  (1) 
Homo sapiens

>  <Target ID>  (1) 
65

>  <Target Name>  (1) 
Cytochrome P450 19A1

>  <Target Organism>  (1) 
Homo sapiens

>  <Target Description>  (1) 
Target is a single protein chain

>  <Sequence Accession>  (1) 
P11511

>  <Reference>  (1) 
Bioorg Med Chem Lett 29 (11), 1395-1398 (2019)

>  <Pubmed ID>  (1) 
30952594

>  <DOI>  (1) 
10.1016/j.bmcl.2019.03.033

$$$$
