4wnv_ligand_186
     RDKit          2D

 22 24  0  0  0  0  0  0  0  0999 V2000
    0.0000   -0.0000   -0.0000 Br  0  0  0  0  0  0  0  0  0  0  0  0
    1.2866    0.7624   -0.0000 C   0  0  0  0  0  0  0  0  0  0  0  0
    2.5731    0.0238   -0.0000 C   0  0  0  0  0  0  0  0  0  0  0  0
    1.2747    2.2872   -0.0000 C   0  0  0  0  0  0  0  0  0  0  0  0
    3.8716    0.7862   -0.0000 C   0  0  0  0  0  0  0  0  0  0  0  0
    2.5612    3.0496   -0.0000 C   0  0  0  0  0  0  0  0  0  0  0  0
    3.8597    2.3110   -0.0000 C   0  0  0  0  0  0  0  0  0  0  0  0
    5.1463    3.0735   -0.0000 C   0  0  0  0  0  0  0  0  0  0  0  0
    5.1343    4.5864   -0.0000 C   0  0  0  0  0  0  0  0  0  0  0  0
    6.4447    2.3349   -0.0000 C   0  0  0  0  0  0  0  0  0  0  0  0
    3.8120    5.3488   -0.0000 O   0  0  0  0  0  0  0  0  0  0  0  0
    6.4209    5.3488   -0.0000 C   0  0  0  0  0  0  0  0  0  0  0  0
    6.4328    0.8458   -0.0000 N   0  0  0  0  0  0  0  0  0  0  0  0
    7.7075    4.6102   -0.0000 C   0  0  0  0  0  0  0  0  0  0  0  0
    6.3971    6.8498   -0.0000 C   0  0  0  0  0  0  0  0  0  0  0  0
    7.6479   -0.0119   -0.0000 N   0  0  0  0  0  0  0  0  0  0  0  0
    5.2177   -0.0238   -0.0000 C   0  0  0  0  0  0  0  0  0  0  0  0
    8.9940    5.3726   -0.0000 C   0  0  0  0  0  0  0  0  0  0  0  0
    7.6836    7.6241   -0.0000 C   0  0  0  0  0  0  0  0  0  0  0  0
    7.1833   -1.4295   -0.0000 N   0  0  0  0  0  0  0  0  0  0  0  0
    5.6704   -1.4414   -0.0000 C   0  0  0  0  0  0  0  0  0  0  0  0
    8.9821    6.8855   -0.0000 C   0  0  0  0  0  0  0  0  0  0  0  0
  1  2  1  0
  2  3  2  0
  2  4  1  0
  3  5  1  0
  4  6  2  0
  5  7  2  0
  7  8  1  0
  8  9  1  0
  8 10  1  6
  9 11  1  6
  9 12  1  0
 10 13  1  0
 12 14  2  0
 12 15  1  0
 13 16  1  0
 13 17  1  0
 14 18  1  0
 15 19  2  0
 16 20  2  0
 17 21  2  0
 18 22  2  0
  6  7  1  0
 19 22  1  0
 20 21  1  0
M  END
>  <MolRegNo>  (1) 
1589885

>  <m>  (1) 
=

>  <Value>  (1) 
820

>  <Unit>  (1) 
nM

>  <Type>  (1) 
Ki

>  <pValue>  (1) 
6.09

>  <Ligand Efficiency>  (1) 
0.38

>  <Binding Efficiency>  (1) 
16.99

>  <Surface Efficiency>  (1) 
11.95

>  <Assay Index>  (1) 
803886

>  <Assay Category>  (1) 


>  <Assay Organism>  (1) 
Homo sapiens

>  <Target ID>  (1) 
65

>  <Target Name>  (1) 
Cytochrome P450 19A1

>  <Target Organism>  (1) 
Homo sapiens

>  <Target Description>  (1) 
Target is a single protein chain

>  <Sequence Accession>  (1) 
P11511

>  <Reference>  (1) 
Bioorg Med Chem Lett 23 (22), 6060-6063 (2013)

>  <Pubmed ID>  (1) 
24113062

>  <DOI>  (1) 
10.1016/j.bmcl.2013.09.030

$$$$
