4wnv_ligand_251
     RDKit          2D

 29 32  0  0  0  0  0  0  0  0999 V2000
    0.0000   -0.0000   -0.0000 O   0  0  0  0  0  0  0  0  0  0  0  0
    1.0689    0.6372   -0.0000 C   0  0  0  0  0  0  0  0  0  0  0  0
    2.3433   -0.1028   -0.0000 C   0  0  0  0  0  0  0  0  0  0  0  0
    1.0483    2.1583   -0.0000 C   0  0  0  0  0  0  0  0  0  0  0  0
    3.6177    0.6989   -0.0000 C   0  0  0  0  0  0  0  0  0  0  0  0
    2.3022    2.9188   -0.0000 C   0  0  0  0  0  0  0  0  0  0  0  0
    3.5972    2.2200   -0.0000 C   0  0  0  0  0  0  0  0  0  0  0  0
    4.9127   -0.0411   -0.0000 C   0  0  0  0  0  0  0  0  0  0  0  0
    4.8716    2.9805   -0.0000 C   0  0  0  0  0  0  0  0  0  0  0  0
    3.5560    3.4944   -0.0000 C   0  0  0  0  0  0  0  0  0  0  0  0
    4.9127   -1.5827   -0.0000 O   0  0  0  0  0  0  0  0  0  0  0  0
    6.1871    0.7605   -0.0000 C   0  0  0  0  0  0  0  0  0  0  0  0
    6.1460    2.2816   -0.0000 C   0  0  0  0  0  0  0  0  0  0  0  0
    4.8305    4.5221   -0.0000 C   0  0  0  0  0  0  0  0  0  0  0  0
    3.5560   -2.3433   -0.0000 C   0  0  0  0  0  0  0  0  0  0  0  0
    7.4204    3.0422   -0.0000 C   0  0  0  0  0  0  0  0  0  0  0  0
    6.1049    5.3032   -0.0000 C   0  0  0  0  0  0  0  0  0  0  0  0
    2.4461   -1.7061   -0.0000 O   0  0  0  0  0  0  0  0  0  0  0  0
    3.5560   -3.8849   -0.0000 C   0  0  0  0  0  0  0  0  0  0  0  0
    7.3999    4.5633   -0.0000 C   0  0  0  0  0  0  0  0  0  0  0  0
   10.0104    3.0422   -0.0000 C   0  0  0  0  0  0  0  0  0  0  0  0
    2.1994   -4.6455   -0.0000 C   0  0  0  0  0  0  0  0  0  0  0  0
    8.6743    5.3649   -0.0000 C   0  0  0  0  0  0  0  0  0  0  0  0
    7.3793    5.8377   -0.0000 C   0  0  0  0  0  0  0  0  0  0  0  0
    9.9898    4.6044   -0.0000 C   0  0  0  0  0  0  0  0  0  0  0  0
    2.1994   -6.1871   -0.0000 C   0  0  0  0  0  0  0  0  0  0  0  0
    8.6537    6.6393   -0.0000 O   0  0  0  0  0  0  0  0  0  0  0  0
    0.8428   -6.9477   -0.0000 C   0  0  0  0  0  0  0  0  0  0  0  0
    0.8222   -8.1810   -0.0000 C   0  0  0  0  0  0  0  0  0  0  0  0
  1  2  2  0
  2  3  1  0
  2  4  1  0
  3  5  2  0
  4  6  1  0
  5  7  1  0
  5  8  1  0
  7  9  1  0
  7 10  1  6
  8 11  1  1
  8 12  1  0
  9 13  1  0
  9 14  1  6
 11 15  1  0
 13 16  1  0
 14 17  1  0
 15 18  2  0
 15 19  1  0
 16 20  1  0
 16 21  1  6
 19 22  1  0
 20 23  1  0
 20 24  1  6
 21 25  1  0
 22 26  1  0
 23 27  2  0
 26 28  1  0
 28 29  1  0
  6  7  1  0
 13 12  1  1
 17 20  1  0
 23 25  1  0
M  END
>  <MolRegNo>  (1) 
2057947

>  <m>  (1) 
=

>  <Value>  (1) 
7

>  <Unit>  (1) 
nM

>  <Type>  (1) 
Ki

>  <pValue>  (1) 
8.15

>  <Ligand Efficiency>  (1) 
0.38

>  <Binding Efficiency>  (1) 
20.36

>  <Surface Efficiency>  (1) 
13.49

>  <Assay Index>  (1) 
985353

>  <Assay Category>  (1) 


>  <Assay Organism>  (1) 
Homo sapiens

>  <Target ID>  (1) 
65

>  <Target Name>  (1) 
Cytochrome P450 19A1

>  <Target Organism>  (1) 
Homo sapiens

>  <Target Description>  (1) 
Target is a single protein chain

>  <Sequence Accession>  (1) 
P11511

>  <Reference>  (1) 


>  <Pubmed ID>  (1) 
26469743

>  <DOI>  (1) 
10.1016/j.ejmech.2015.09.038

$$$$
