4wnv_ligand_104
     RDKit          2D

 20 23  0  0  1  0  0  0  0  0999 V2000
    0.0000   -0.0000   -0.0000 O   0  0  0  0  0  0  0  0  0  0  0  0
    1.2797    0.7642   -0.0000 C   0  0  0  0  0  0  0  0  0  0  0  0
    2.5593    0.0355   -0.0000 C   0  0  0  0  0  0  0  0  0  0  0  0
    1.2619    2.2750   -0.0000 C   0  0  0  0  0  0  0  0  0  0  0  0
    3.8212    0.7998   -0.0000 C   0  0  0  0  0  0  0  0  0  0  0  0
    2.5416    3.0570   -0.0000 C   0  0  0  0  0  0  0  0  0  0  0  0
    3.8212    2.3105   -0.0000 C   0  0  0  0  0  0  0  0  0  0  0  0
    5.1009    0.0711   -0.0000 C   0  0  0  0  0  0  0  0  0  0  0  0
    5.1009    3.0748   -0.0000 C   0  0  0  0  0  0  0  0  0  0  0  0
    3.7857    3.8212   -0.0000 C   0  0  0  0  0  0  0  0  0  0  0  0
    6.3983    0.8353   -0.0000 C   0  0  0  0  0  0  0  0  0  0  0  0
    6.3628    2.3283   -0.0000 C   0  0  0  0  0  0  0  0  0  0  0  0
    5.0831    4.5855   -0.0000 C   0  0  0  0  0  0  0  0  0  0  0  0
    7.6780    3.2525   -0.0000 C   0  0  0  0  0  0  0  0  0  0  0  0
    6.3806    5.3320   -0.0000 C   0  0  0  0  0  0  0  0  0  0  0  0
    7.6602    4.5855   -0.0000 C   0  0  0  0  0  0  0  0  0  0  0  0
    9.9174    3.2703   -0.0000 C   0  0  0  0  0  0  0  0  0  0  0  0
    8.7799    5.2609   -0.0000 C   0  0  0  0  0  0  0  0  0  0  0  0
    7.6425    6.0962   -0.0000 C   0  0  0  0  0  0  0  0  0  0  0  0
    9.8997    4.6033   -0.0000 C   0  0  0  0  0  0  0  0  0  0  0  0
  1  2  2  0
  2  3  1  0
  2  4  1  0
  3  5  2  0
  4  6  2  0
  5  7  1  0
  5  8  1  0
  7  9  1  0
  7 10  1  1
  8 11  1  0
  9 12  1  0
  9 13  1  0
 12 14  1  0
 13 15  1  0
 14 16  1  0
 14 17  1  0
 16 18  1  0
 16 19  1  1
 17 20  1  0
  6  7  1  0
 11 12  1  0
 15 16  1  0
 18 20  1  0
M  END
>  <MolRegNo>  (1) 
162818

>  <m>  (1) 
=

>  <Value>  (1) 
1100

>  <Unit>  (1) 
nM

>  <Type>  (1) 
Ki

>  <pValue>  (1) 
5.96

>  <Ligand Efficiency>  (1) 
0.41

>  <Binding Efficiency>  (1) 
22.03

>  <Surface Efficiency>  (1) 
34.91

>  <Assay Index>  (1) 
50795

>  <Assay Category>  (1) 


>  <Assay Organism>  (1) 


>  <Target ID>  (1) 
65

>  <Target Name>  (1) 
Cytochrome P450 19A1

>  <Target Organism>  (1) 
Homo sapiens

>  <Target Description>  (1) 
Target is a single protein chain

>  <Sequence Accession>  (1) 
P11511

>  <Reference>  (1) 
J Med Chem 33 (11), 2933-2942 (1990)

>  <Pubmed ID>  (1) 
2231592

>  <DOI>  (1) 
10.1021/jm00173a001

$$$$
