4wnv_ligand_16
     RDKit          2D

 37 40  0  0  0  0  0  0  0  0999 V2000
    0.0000   -0.0000   -0.0000 F   0  0  0  0  0  0  0  0  0  0  0  0
    1.3122   -0.7464   -0.0000 C   0  0  0  0  0  0  0  0  0  0  0  0
    2.6244    0.0241   -0.0000 C   0  0  0  0  0  0  0  0  0  0  0  0
    1.3002   -2.2392   -0.0000 C   0  0  0  0  0  0  0  0  0  0  0  0
    3.9126   -0.7223   -0.0000 C   0  0  0  0  0  0  0  0  0  0  0  0
    2.6003   -2.9856   -0.0000 C   0  0  0  0  0  0  0  0  0  0  0  0
    3.9005   -2.2151   -0.0000 C   0  0  0  0  0  0  0  0  0  0  0  0
    5.1887   -2.9615   -0.0000 N   0  0  0  0  0  0  0  0  0  0  0  0
    6.4768   -2.1910   -0.0000 C   0  0  0  0  0  0  0  0  0  0  0  0
    5.1766   -4.4543   -0.0000 C   0  0  0  0  0  0  0  0  0  0  0  0
    6.4648   -0.6742   -0.0000 O   0  0  0  0  0  0  0  0  0  0  0  0
    7.7770   -2.9374   -0.0000 C   0  0  0  0  0  0  0  0  0  0  0  0
    3.8644   -5.2007   -0.0000 C   0  0  0  0  0  0  0  0  0  0  0  0
    6.4768   -5.2007   -0.0000 C   0  0  0  0  0  0  0  0  0  0  0  0
    7.7649   -4.4423   -0.0000 C   0  0  0  0  0  0  0  0  0  0  0  0
    9.0771   -2.1670   -0.0000 C   0  0  0  0  0  0  0  0  0  0  0  0
    3.8524   -6.7055   -0.0000 C   0  0  0  0  0  0  0  0  0  0  0  0
    6.4648   -6.7055   -0.0000 C   0  0  0  0  0  0  0  0  0  0  0  0
    9.0531   -5.1887   -0.0000 C   0  0  0  0  0  0  0  0  0  0  0  0
   10.3653   -2.9134   -0.0000 C   0  0  0  0  0  0  0  0  0  0  0  0
    5.1405   -7.4519   -0.0000 N   0  0  0  0  0  0  0  0  0  0  0  0
   10.3532   -4.4182   -0.0000 C   0  0  0  0  0  0  0  0  0  0  0  0
    5.1285   -8.9447   -0.0000 C   0  0  0  0  0  0  0  0  0  0  0  0
   11.6655   -5.1646   -0.0000 O   0  0  0  0  0  0  0  0  0  0  0  0
    6.4166   -9.6670   -0.0000 C   0  0  0  0  0  0  0  0  0  0  0  0
   11.6655   -6.6694   -0.0000 C   0  0  0  0  0  0  0  0  0  0  0  0
    7.7047   -8.9206   -0.0000 O   0  0  0  0  0  0  0  0  0  0  0  0
    6.4046  -11.1839   -0.0000 C   0  0  0  0  0  0  0  0  0  0  0  0
    7.6927  -11.9303   -0.0000 O   0  0  0  0  0  0  0  0  0  0  0  0
    7.6807  -13.4231   -0.0000 C   0  0  0  0  0  0  0  0  0  0  0  0
    6.3684  -14.1695   -0.0000 C   0  0  0  0  0  0  0  0  0  0  0  0
    8.9688  -14.1695   -0.0000 C   0  0  0  0  0  0  0  0  0  0  0  0
    6.3564  -15.6743   -0.0000 C   0  0  0  0  0  0  0  0  0  0  0  0
    8.9568  -15.6743   -0.0000 C   0  0  0  0  0  0  0  0  0  0  0  0
    7.6445  -16.4207   -0.0000 C   0  0  0  0  0  0  0  0  0  0  0  0
    7.6566  -17.9135   -0.0000 O   0  0  0  0  0  0  0  0  0  0  0  0
    8.9447  -18.6358   -0.0000 C   0  0  0  0  0  0  0  0  0  0  0  0
  1  2  1  0
  2  3  2  0
  2  4  1  0
  3  5  1  0
  4  6  2  0
  5  7  2  0
  7  8  1  0
  8  9  1  0
  8 10  1  0
  9 11  2  0
  9 12  1  0
 10 13  1  0
 10 14  1  0
 12 15  2  0
 12 16  1  0
 13 17  1  0
 14 18  1  0
 15 19  1  0
 16 20  2  0
 17 21  1  0
 19 22  2  0
 21 23  1  0
 22 24  1  0
 23 25  1  0
 24 26  1  0
 25 27  1  0
 25 28  1  0
 28 29  1  0
 29 30  1  0
 30 31  2  0
 30 32  1  0
 31 33  1  0
 32 34  2  0
 33 35  2  0
 35 36  1  0
 36 37  1  0
  6  7  1  0
 18 21  1  0
 20 22  1  0
 34 35  1  0
M  END
>  <MolRegNo>  (1) 
96278

>  <m>  (1) 
=

>  <Value>  (1) 
3000

>  <Unit>  (1) 
nM

>  <Type>  (1) 
Ki

>  <pValue>  (1) 
5.52

>  <Ligand Efficiency>  (1) 
0

>  <Binding Efficiency>  (1) 
0

>  <Surface Efficiency>  (1) 
0

>  <Assay Index>  (1) 
51650

>  <Assay Category>  (1) 


>  <Assay Organism>  (1) 


>  <Target ID>  (1) 
11365

>  <Target Name>  (1) 
Cytochrome P450 2D6

>  <Target Organism>  (1) 
Homo sapiens

>  <Target Description>  (1) 
Target is a single protein chain

>  <Sequence Accession>  (1) 
P10635

>  <Reference>  (1) 
Bioorg Med Chem Lett 14 (9), 2025-2030 (2004)

>  <Pubmed ID>  (1) 
15080972

>  <DOI>  (1) 
10.1016/j.bmcl.2004.02.078

$$$$
