4wnv_ligand_341
     RDKit          2D

 22 25  0  0  0  0  0  0  0  0999 V2000
    0.0000   -0.0000   -0.0000 S   0  0  0  0  0  0  0  0  0  0  0  0
    1.3060    0.7958   -0.0000 C   0  0  0  0  0  0  0  0  0  0  0  0
   -1.1019    0.6326   -0.0000 C   0  0  0  0  0  0  0  0  0  0  0  0
    1.2856   -0.6734   -0.0000 C   0  0  0  0  0  0  0  0  0  0  0  0
   -0.0204    1.5305   -0.0000 C   0  0  0  0  0  0  0  0  0  0  0  0
    2.5712    1.5509   -0.0000 C   0  0  0  0  0  0  0  0  0  0  0  0
   -0.0204   -1.4284   -0.0000 C   0  0  0  0  0  0  0  0  0  0  0  0
    2.5712   -1.4080   -0.0000 C   0  0  0  0  0  0  0  0  0  0  0  0
   -1.3060    0.8162   -0.0000 C   0  0  0  0  0  0  0  0  0  0  0  0
    3.8364    0.8571   -0.0000 C   0  0  0  0  0  0  0  0  0  0  0  0
    2.5304    3.0813   -0.0000 C   0  0  0  0  0  0  0  0  0  0  0  0
   -1.3264   -0.6530   -0.0000 C   0  0  0  0  0  0  0  0  0  0  0  0
    3.8364   -0.6122   -0.0000 C   0  0  0  0  0  0  0  0  0  0  0  0
    5.1016    1.6121   -0.0000 C   0  0  0  0  0  0  0  0  0  0  0  0
    3.7956    3.8568   -0.0000 C   0  0  0  0  0  0  0  0  0  0  0  0
   -2.4283   -1.2448   -0.0000 O   0  0  0  0  0  0  0  0  0  0  0  0
    5.0811    3.1221   -0.0000 C   0  0  0  0  0  0  0  0  0  0  0  0
    7.6727    1.6121   -0.0000 C   0  0  0  0  0  0  0  0  0  0  0  0
    6.3463    3.9180   -0.0000 C   0  0  0  0  0  0  0  0  0  0  0  0
    5.0607    4.3873   -0.0000 C   0  0  0  0  0  0  0  0  0  0  0  0
    7.6523    3.1630   -0.0000 C   0  0  0  0  0  0  0  0  0  0  0  0
    6.3259    5.1832   -0.0000 O   0  0  0  0  0  0  0  0  0  0  0  0
  2  1  1  6
  1  3  1  0
  2  4  1  0
  2  5  1  0
  2  6  1  0
  4  7  2  0
  4  8  1  0
  5  9  2  0
  6 10  1  0
  6 11  1  6
  7 12  1  0
  8 13  1  0
 10 14  1  0
 11 15  1  0
 12 16  2  0
 14 17  1  0
 14 18  1  6
 17 19  1  0
 17 20  1  6
 18 21  1  0
 19 22  1  6
  9 12  1  0
 10 13  1  1
 15 17  1  0
 19 21  1  0
M  END
>  <MolRegNo>  (1) 
2058077

>  <m>  (1) 
=

>  <Value>  (1) 
610

>  <Unit>  (1) 
nM

>  <Type>  (1) 
Ki

>  <pValue>  (1) 
6.21

>  <Ligand Efficiency>  (1) 
0.39

>  <Binding Efficiency>  (1) 
19.51

>  <Surface Efficiency>  (1) 
16.66

>  <Assay Index>  (1) 
985545

>  <Assay Category>  (1) 


>  <Assay Organism>  (1) 
Homo sapiens

>  <Target ID>  (1) 
65

>  <Target Name>  (1) 
Cytochrome P450 19A1

>  <Target Organism>  (1) 
Homo sapiens

>  <Target Description>  (1) 
Target is a single protein chain

>  <Sequence Accession>  (1) 
P11511

>  <Reference>  (1) 


>  <Pubmed ID>  (1) 
26469743

>  <DOI>  (1) 
10.1016/j.ejmech.2015.09.038

$$$$
