4wnv_ligand_25
     RDKit          2D

 37 40  0  0  0  0  0  0  0  0999 V2000
    0.0000   -0.0000   -0.0000 F   0  0  0  0  0  0  0  0  0  0  0  0
   -0.0120   -1.4980   -0.0000 C   0  0  0  0  0  0  0  0  0  0  0  0
   -1.3302   -2.2410   -0.0000 C   0  0  0  0  0  0  0  0  0  0  0  0
    1.2942   -2.2410   -0.0000 C   0  0  0  0  0  0  0  0  0  0  0  0
   -1.3422   -3.7509   -0.0000 C   0  0  0  0  0  0  0  0  0  0  0  0
    1.2823   -3.7509   -0.0000 C   0  0  0  0  0  0  0  0  0  0  0  0
   -0.0479   -4.4939   -0.0000 C   0  0  0  0  0  0  0  0  0  0  0  0
   -0.0599   -5.9919   -0.0000 C   0  0  0  0  0  0  0  0  0  0  0  0
   -1.1025   -6.5551   -0.0000 O   0  0  0  0  0  0  0  0  0  0  0  0
    1.2463   -6.7349   -0.0000 N   0  0  0  0  0  0  0  0  0  0  0  0
    1.2343   -8.2328   -0.0000 C   0  0  0  0  0  0  0  0  0  0  0  0
   -0.0839   -8.9758   -0.0000 C   0  0  0  0  0  0  0  0  0  0  0  0
   -0.0959  -10.4738   -0.0000 N   0  0  0  0  0  0  0  0  0  0  0  0
   -1.5579   -8.5804   -0.0000 C   0  0  0  0  0  0  0  0  0  0  0  0
   -1.4141  -11.2168   -0.0000 C   0  0  0  0  0  0  0  0  0  0  0  0
    1.1984  -11.2168   -0.0000 C   0  0  0  0  0  0  0  0  0  0  0  0
   -1.9534   -7.0824   -0.0000 C   0  0  0  0  0  0  0  0  0  0  0  0
   -2.6484   -9.6349   -0.0000 C   0  0  0  0  0  0  0  0  0  0  0  0
   -1.4261  -12.7268   -0.0000 C   0  0  0  0  0  0  0  0  0  0  0  0
    1.1864  -12.7268   -0.0000 C   0  0  0  0  0  0  0  0  0  0  0  0
   -3.4393   -6.6869   -0.0000 C   0  0  0  0  0  0  0  0  0  0  0  0
   -4.1224   -9.2395   -0.0000 C   0  0  0  0  0  0  0  0  0  0  0  0
   -0.1318  -13.4698   -0.0000 N   0  0  0  0  0  0  0  0  0  0  0  0
   -4.5299   -7.7535   -0.0000 C   0  0  0  0  0  0  0  0  0  0  0  0
   -0.1438  -14.9677   -0.0000 C   0  0  0  0  0  0  0  0  0  0  0  0
    1.1504  -15.7107   -0.0000 C   0  0  0  0  0  0  0  0  0  0  0  0
    2.4447  -14.9438   -0.0000 O   0  0  0  0  0  0  0  0  0  0  0  0
    1.1385  -17.2087   -0.0000 C   0  0  0  0  0  0  0  0  0  0  0  0
    2.4327  -17.9517   -0.0000 O   0  0  0  0  0  0  0  0  0  0  0  0
    2.4207  -19.4497   -0.0000 C   0  0  0  0  0  0  0  0  0  0  0  0
    1.0905  -20.1926   -0.0000 C   0  0  0  0  0  0  0  0  0  0  0  0
    3.7150  -20.1926   -0.0000 C   0  0  0  0  0  0  0  0  0  0  0  0
    1.0785  -21.7026   -0.0000 C   0  0  0  0  0  0  0  0  0  0  0  0
    3.7030  -21.7026   -0.0000 C   0  0  0  0  0  0  0  0  0  0  0  0
    2.3848  -22.4456   -0.0000 C   0  0  0  0  0  0  0  0  0  0  0  0
    2.3848  -23.9196   -0.0000 O   0  0  0  0  0  0  0  0  0  0  0  0
    3.6790  -24.6626   -0.0000 C   0  0  0  0  0  0  0  0  0  0  0  0
  1  2  1  0
  2  3  2  0
  2  4  1  0
  3  5  1  0
  4  6  2  0
  5  7  2  0
  7  8  1  0
  8  9  2  0
  8 10  1  0
 10 11  1  0
 11 12  1  0
 12 13  1  0
 12 14  1  0
 13 15  1  0
 13 16  1  0
 14 17  2  0
 14 18  1  0
 15 19  1  0
 16 20  1  0
 17 21  1  0
 18 22  2  0
 19 23  1  0
 21 24  2  0
 23 25  1  0
 25 26  1  0
 26 27  1  0
 26 28  1  0
 28 29  1  0
 29 30  1  0
 30 31  2  0
 30 32  1  0
 31 33  1  0
 32 34  2  0
 33 35  2  0
 35 36  1  0
 36 37  1  0
  6  7  1  0
 20 23  1  0
 22 24  1  0
 34 35  1  0
M  END
>  <MolRegNo>  (1) 
97326

>  <m>  (1) 
=

>  <Value>  (1) 
3000

>  <Unit>  (1) 
nM

>  <Type>  (1) 
Ki

>  <pValue>  (1) 
5.52

>  <Ligand Efficiency>  (1) 
0

>  <Binding Efficiency>  (1) 
0

>  <Surface Efficiency>  (1) 
0

>  <Assay Index>  (1) 
51650

>  <Assay Category>  (1) 


>  <Assay Organism>  (1) 


>  <Target ID>  (1) 
11365

>  <Target Name>  (1) 
Cytochrome P450 2D6

>  <Target Organism>  (1) 
Homo sapiens

>  <Target Description>  (1) 
Target is a single protein chain

>  <Sequence Accession>  (1) 
P10635

>  <Reference>  (1) 
Bioorg Med Chem Lett 14 (9), 2025-2030 (2004)

>  <Pubmed ID>  (1) 
15080972

>  <DOI>  (1) 
10.1016/j.bmcl.2004.02.078

$$$$
