4wnv_ligand_351
     RDKit          2D

 23 27  0  0  0  0  0  0  0  0999 V2000
    0.0000   -0.0000   -0.0000 O   0  0  0  0  0  0  0  0  0  0  0  0
    1.2805    0.7655   -0.0000 C   0  0  0  0  0  0  0  0  0  0  0  0
    2.5610    0.0278   -0.0000 C   0  0  0  0  0  0  0  0  0  0  0  0
    1.2666    2.2687   -0.0000 C   0  0  0  0  0  0  0  0  0  0  0  0
    3.8415    0.7934   -0.0000 C   0  0  0  0  0  0  0  0  0  0  0  0
    2.5471    3.0342   -0.0000 C   0  0  0  0  0  0  0  0  0  0  0  0
    3.8276    2.2966   -0.0000 C   0  0  0  0  0  0  0  0  0  0  0  0
    5.1220    0.0557   -0.0000 C   0  0  0  0  0  0  0  0  0  0  0  0
    5.1081    3.0621   -0.0000 C   0  0  0  0  0  0  0  0  0  0  0  0
    4.2034    3.6884   -0.0000 C   0  0  0  0  0  0  0  0  0  0  0  0
    5.9571    1.4336   -0.0000 C   0  0  0  0  0  0  0  0  0  0  0  0
    6.4025    0.8212   -0.0000 C   0  0  0  0  0  0  0  0  0  0  0  0
    6.3886    2.3244   -0.0000 C   0  0  0  0  0  0  0  0  0  0  0  0
    5.0942    4.5653   -0.0000 C   0  0  0  0  0  0  0  0  0  0  0  0
    4.7462    1.9347   -0.0000 O   0  0  0  0  0  0  0  0  0  0  0  0
    7.6691    3.0899   -0.0000 C   0  0  0  0  0  0  0  0  0  0  0  0
    6.3747    5.3308   -0.0000 C   0  0  0  0  0  0  0  0  0  0  0  0
    7.6552    4.5931   -0.0000 C   0  0  0  0  0  0  0  0  0  0  0  0
    9.0749    2.6445   -0.0000 C   0  0  0  0  0  0  0  0  0  0  0  0
    9.0610    5.0663   -0.0000 C   0  0  0  0  0  0  0  0  0  0  0  0
    7.6413    6.0963   -0.0000 C   0  0  0  0  0  0  0  0  0  0  0  0
    9.9378    3.8694   -0.0000 C   0  0  0  0  0  0  0  0  0  0  0  0
    9.4368    6.5278   -0.0000 O   0  0  0  0  0  0  0  0  0  0  0  0
  1  2  2  0
  2  3  1  0
  2  4  1  0
  3  5  2  0
  4  6  1  0
  5  7  1  0
  5  8  1  0
  7  9  1  0
  7 10  1  1
  8 11  1  1
  8 12  1  0
  9 13  1  0
  9 14  1  0
 10 15  1  0
 13 16  1  0
 14 17  1  0
 16 18  1  0
 16 19  1  0
 18 20  1  0
 18 21  1  1
 19 22  1  0
 20 23  2  0
  6  7  1  0
 11 15  1  0
 12 13  1  0
 17 18  1  0
 20 22  1  0
M  END
>  <MolRegNo>  (1) 
2717278

>  <m>  (1) 
=

>  <Value>  (1) 
10000

>  <Unit>  (1) 
nM

>  <Type>  (1) 
Ki

>  <pValue>  (1) 
5

>  <Ligand Efficiency>  (1) 
0.3

>  <Binding Efficiency>  (1) 
15.9

>  <Surface Efficiency>  (1) 
11.53

>  <Assay Index>  (1) 
985549

>  <Assay Category>  (1) 


>  <Assay Organism>  (1) 
Homo sapiens

>  <Target ID>  (1) 
65

>  <Target Name>  (1) 
Cytochrome P450 19A1

>  <Target Organism>  (1) 
Homo sapiens

>  <Target Description>  (1) 
Target is a single protein chain

>  <Sequence Accession>  (1) 
P11511

>  <Reference>  (1) 


>  <Pubmed ID>  (1) 
26469743

>  <DOI>  (1) 
10.1016/j.ejmech.2015.09.038

$$$$
