4wnv_ligand_352
     RDKit          2D

 23 26  0  0  0  0  0  0  0  0999 V2000
    0.0000   -0.0000   -0.0000 F   0  0  0  0  0  0  0  0  0  0  0  0
   -0.0205    1.2728   -0.0000 C   0  0  0  0  0  0  0  0  0  0  0  0
   -1.1291    1.9093   -0.0000 F   0  0  0  0  0  0  0  0  0  0  0  0
    1.2934    2.0735   -0.0000 C   0  0  0  0  0  0  0  0  0  0  0  0
    1.2728    0.5954   -0.0000 C   0  0  0  0  0  0  0  0  0  0  0  0
    2.5662    2.8331   -0.0000 C   0  0  0  0  0  0  0  0  0  0  0  0
   -0.0411    2.8126   -0.0000 C   0  0  0  0  0  0  0  0  0  0  0  0
   -0.0411   -0.1642   -0.0000 C   0  0  0  0  0  0  0  0  0  0  0  0
    2.5662   -0.1437   -0.0000 C   0  0  0  0  0  0  0  0  0  0  0  0
    3.8391    2.1351   -0.0000 C   0  0  0  0  0  0  0  0  0  0  0  0
    2.5252    4.3728   -0.0000 C   0  0  0  0  0  0  0  0  0  0  0  0
   -1.3344    2.0940   -0.0000 C   0  0  0  0  0  0  0  0  0  0  0  0
   -1.3550    0.6159   -0.0000 C   0  0  0  0  0  0  0  0  0  0  0  0
    3.8391    0.6570   -0.0000 C   0  0  0  0  0  0  0  0  0  0  0  0
    5.1119    2.8947   -0.0000 C   0  0  0  0  0  0  0  0  0  0  0  0
    3.7980    5.1530   -0.0000 C   0  0  0  0  0  0  0  0  0  0  0  0
   -2.4636    0.0205   -0.0000 O   0  0  0  0  0  0  0  0  0  0  0  0
    5.0914    4.4139   -0.0000 C   0  0  0  0  0  0  0  0  0  0  0  0
    7.6986    2.8947   -0.0000 C   0  0  0  0  0  0  0  0  0  0  0  0
    6.3642    5.2146   -0.0000 C   0  0  0  0  0  0  0  0  0  0  0  0
    5.0708    5.6867   -0.0000 C   0  0  0  0  0  0  0  0  0  0  0  0
    7.6781    4.4550   -0.0000 C   0  0  0  0  0  0  0  0  0  0  0  0
    6.3437    6.4874   -0.0000 O   0  0  0  0  0  0  0  0  0  0  0  0
  1  2  1  0
  2  3  1  0
  4  2  1  1
  4  5  1  0
  4  6  1  0
  4  7  1  0
  5  8  2  0
  5  9  1  0
  6 10  1  0
  6 11  1  1
  7 12  1  0
  8 13  1  0
  9 14  1  0
 10 15  1  0
 11 16  1  0
 13 17  2  0
 15 18  1  0
 15 19  1  1
 18 20  1  0
 18 21  1  1
 19 22  1  0
 20 23  2  0
 10 14  1  6
 12 13  1  0
 16 18  1  0
 20 22  1  0
M  END
>  <MolRegNo>  (1) 
2058088

>  <m>  (1) 
=

>  <Value>  (1) 
1000

>  <Unit>  (1) 
nM

>  <Type>  (1) 
Ki

>  <pValue>  (1) 
6

>  <Ligand Efficiency>  (1) 
0.36

>  <Binding Efficiency>  (1) 
18.61

>  <Surface Efficiency>  (1) 
17.57

>  <Assay Index>  (1) 
985550

>  <Assay Category>  (1) 


>  <Assay Organism>  (1) 
Homo sapiens

>  <Target ID>  (1) 
65

>  <Target Name>  (1) 
Cytochrome P450 19A1

>  <Target Organism>  (1) 
Homo sapiens

>  <Target Description>  (1) 
Target is a single protein chain

>  <Sequence Accession>  (1) 
P11511

>  <Reference>  (1) 


>  <Pubmed ID>  (1) 
26469743

>  <DOI>  (1) 
10.1016/j.ejmech.2015.09.038

$$$$
