4wnv_ligand_187
     RDKit          2D

 22 24  0  0  0  0  0  0  0  0999 V2000
    0.0000   -0.0000   -0.0000 Br  0  0  0  0  0  0  0  0  0  0  0  0
   -1.3094   -0.7499   -0.0000 C   0  0  0  0  0  0  0  0  0  0  0  0
   -1.3213   -2.2378   -0.0000 C   0  0  0  0  0  0  0  0  0  0  0  0
   -2.6306    0.0119   -0.0000 C   0  0  0  0  0  0  0  0  0  0  0  0
   -2.6306   -2.9758   -0.0000 C   0  0  0  0  0  0  0  0  0  0  0  0
   -3.9281   -0.7380   -0.0000 C   0  0  0  0  0  0  0  0  0  0  0  0
   -3.9400   -2.2140   -0.0000 C   0  0  0  0  0  0  0  0  0  0  0  0
   -5.2494   -2.9520   -0.0000 C   0  0  0  0  0  0  0  0  0  0  0  0
   -6.5587   -2.1902   -0.0000 O   0  0  0  0  0  0  0  0  0  0  0  0
   -5.2613   -4.4399   -0.0000 C   0  0  0  0  0  0  0  0  0  0  0  0
   -6.5706   -5.1779   -0.0000 C   0  0  0  0  0  0  0  0  0  0  0  0
   -3.9638   -5.1779   -0.0000 C   0  0  0  0  0  0  0  0  0  0  0  0
   -7.8800   -4.4161   -0.0000 C   0  0  0  0  0  0  0  0  0  0  0  0
   -6.5825   -6.6777   -0.0000 C   0  0  0  0  0  0  0  0  0  0  0  0
   -3.9757   -6.6658   -0.0000 N   0  0  0  0  0  0  0  0  0  0  0  0
   -9.1893   -5.1541   -0.0000 C   0  0  0  0  0  0  0  0  0  0  0  0
   -7.9038   -7.4158   -0.0000 C   0  0  0  0  0  0  0  0  0  0  0  0
   -2.7616   -7.5229   -0.0000 N   0  0  0  0  0  0  0  0  0  0  0  0
   -5.1898   -7.5348   -0.0000 C   0  0  0  0  0  0  0  0  0  0  0  0
   -9.2012   -6.6539   -0.0000 C   0  0  0  0  0  0  0  0  0  0  0  0
   -3.2377   -8.9394   -0.0000 N   0  0  0  0  0  0  0  0  0  0  0  0
   -4.7375   -8.9513   -0.0000 C   0  0  0  0  0  0  0  0  0  0  0  0
  1  2  1  0
  2  3  2  0
  2  4  1  0
  3  5  1  0
  4  6  2  0
  5  7  2  0
  7  8  1  0
  8  9  1  6
  8 10  1  0
 10 11  1  0
 10 12  1  6
 11 13  2  0
 11 14  1  0
 12 15  1  0
 13 16  1  0
 14 17  2  0
 15 18  1  0
 15 19  1  0
 16 20  2  0
 18 21  2  0
 19 22  2  0
  6  7  1  0
 17 20  1  0
 21 22  1  0
M  END
>  <MolRegNo>  (1) 
1589884

>  <m>  (1) 
=

>  <Value>  (1) 
170

>  <Unit>  (1) 
nM

>  <Type>  (1) 
Ki

>  <pValue>  (1) 
6.77

>  <Ligand Efficiency>  (1) 
0.42

>  <Binding Efficiency>  (1) 
18.9

>  <Surface Efficiency>  (1) 
13.29

>  <Assay Index>  (1) 
803886

>  <Assay Category>  (1) 


>  <Assay Organism>  (1) 
Homo sapiens

>  <Target ID>  (1) 
65

>  <Target Name>  (1) 
Cytochrome P450 19A1

>  <Target Organism>  (1) 
Homo sapiens

>  <Target Description>  (1) 
Target is a single protein chain

>  <Sequence Accession>  (1) 
P11511

>  <Reference>  (1) 
Bioorg Med Chem Lett 23 (22), 6060-6063 (2013)

>  <Pubmed ID>  (1) 
24113062

>  <DOI>  (1) 
10.1016/j.bmcl.2013.09.030

$$$$
