4wnv_ligand_97
     RDKit          2D

 26 29  0  0  1  0  0  0  0  0999 V2000
    0.0000   -0.0000   -0.0000 Br  0  0  0  0  0  0  0  0  0  0  0  0
    1.0652    1.1014   -0.0000 C   0  0  0  0  0  0  0  0  0  0  0  0
   -0.2708    1.8777   -0.0000 C   0  0  0  0  0  0  0  0  0  0  0  0
    2.3833    1.8777   -0.0000 C   0  0  0  0  0  0  0  0  0  0  0  0
   -1.5888    1.1375   -0.0000 C   0  0  0  0  0  0  0  0  0  0  0  0
   -0.2708    3.4124   -0.0000 C   0  0  0  0  0  0  0  0  0  0  0  0
    2.3472    3.4124   -0.0000 C   0  0  0  0  0  0  0  0  0  0  0  0
   -2.9249    1.9138   -0.0000 C   0  0  0  0  0  0  0  0  0  0  0  0
    1.0291    4.1888   -0.0000 C   0  0  0  0  0  0  0  0  0  0  0  0
   -1.6069    4.2068   -0.0000 C   0  0  0  0  0  0  0  0  0  0  0  0
   -0.3069    4.9471   -0.0000 C   0  0  0  0  0  0  0  0  0  0  0  0
    3.6832    4.3513   -0.0000 C   0  0  0  0  0  0  0  0  0  0  0  0
   -4.2610    1.1736   -0.0000 O   0  0  0  0  0  0  0  0  0  0  0  0
   -2.9430    3.4485   -0.0000 C   0  0  0  0  0  0  0  0  0  0  0  0
    1.0111    5.7234   -0.0000 C   0  0  0  0  0  0  0  0  0  0  0  0
    3.6652    5.7054   -0.0000 C   0  0  0  0  0  0  0  0  0  0  0  0
    5.9582    4.3693   -0.0000 C   0  0  0  0  0  0  0  0  0  0  0  0
    2.3291    6.4818   -0.0000 C   0  0  0  0  0  0  0  0  0  0  0  0
    4.8026    6.3915   -0.0000 C   0  0  0  0  0  0  0  0  0  0  0  0
    3.6471    7.2401   -0.0000 C   0  0  0  0  0  0  0  0  0  0  0  0
    5.9401    5.7234   -0.0000 C   0  0  0  0  0  0  0  0  0  0  0  0
    4.7846    7.7456   -0.0000 O   0  0  0  0  0  0  0  0  0  0  0  0
    5.9040    8.4136   -0.0000 C   0  0  0  0  0  0  0  0  0  0  0  0
    5.8859    9.7678   -0.0000 O   0  0  0  0  0  0  0  0  0  0  0  0
    7.0234    7.7637   -0.0000 C   0  0  0  0  0  0  0  0  0  0  0  0
    8.1609    8.4498   -0.0000 Br  0  0  0  0  0  0  0  0  0  0  0  0
  2  1  1  1
  2  3  1  0
  2  4  1  0
  3  5  2  0
  3  6  1  0
  4  7  1  0
  5  8  1  0
  6  9  1  0
  6 10  1  0
  6 11  1  1
  7 12  1  0
  8 13  2  0
  8 14  1  0
  9 15  1  0
 12 16  1  0
 12 17  1  0
 15 18  1  0
 16 19  1  0
 16 20  1  1
 17 21  1  0
 19 22  1  1
 22 23  1  0
 23 24  2  0
 23 25  1  0
 25 26  1  0
  7  9  1  0
 10 14  1  0
 16 18  1  0
 19 21  1  0
M  END
>  <MolRegNo>  (1) 
162817

>  <m>  (1) 
=

>  <Value>  (1) 
25000

>  <Unit>  (1) 
nM

>  <Type>  (1) 
Ki

>  <pValue>  (1) 
4.6

>  <Ligand Efficiency>  (1) 
0.24

>  <Binding Efficiency>  (1) 
9.43

>  <Surface Efficiency>  (1) 
10.61

>  <Assay Index>  (1) 
50795

>  <Assay Category>  (1) 


>  <Assay Organism>  (1) 


>  <Target ID>  (1) 
65

>  <Target Name>  (1) 
Cytochrome P450 19A1

>  <Target Organism>  (1) 
Homo sapiens

>  <Target Description>  (1) 
Target is a single protein chain

>  <Sequence Accession>  (1) 
P11511

>  <Reference>  (1) 
J Med Chem 33 (11), 2933-2942 (1990)

>  <Pubmed ID>  (1) 
2231592

>  <DOI>  (1) 
10.1021/jm00173a001

$$$$
