4wnv_ligand_285
     RDKit          2D

 25 28  0  0  0  0  0  0  0  0999 V2000
    0.0000   -0.0000   -0.0000 S   0  0  0  0  0  0  0  0  0  0  0  0
   -0.0204    1.5722   -0.0000 C   0  0  0  0  0  0  0  0  0  0  0  0
   -1.3680   -0.7555   -0.0000 C   0  0  0  0  0  0  0  0  0  0  0  0
   -1.3272    2.3481   -0.0000 C   0  0  0  0  0  0  0  0  0  0  0  0
    1.2455    2.3685   -0.0000 C   0  0  0  0  0  0  0  0  0  0  0  0
   -1.3885   -2.2869   -0.0000 C   0  0  0  0  0  0  0  0  0  0  0  0
   -2.4298    1.7560   -0.0000 O   0  0  0  0  0  0  0  0  0  0  0  0
   -1.3476    3.8591   -0.0000 C   0  0  0  0  0  0  0  0  0  0  0  0
    1.2251    3.8795   -0.0000 C   0  0  0  0  0  0  0  0  0  0  0  0
    2.5319    1.6335   -0.0000 C   0  0  0  0  0  0  0  0  0  0  0  0
   -2.4911   -2.8790   -0.0000 C   0  0  0  0  0  0  0  0  0  0  0  0
   -0.1021    4.6146   -0.0000 C   0  0  0  0  0  0  0  0  0  0  0  0
    2.4911    4.6350   -0.0000 C   0  0  0  0  0  0  0  0  0  0  0  0
    1.1843    5.1454   -0.0000 C   0  0  0  0  0  0  0  0  0  0  0  0
    3.7978    2.4298   -0.0000 C   0  0  0  0  0  0  0  0  0  0  0  0
    3.7570    3.9408   -0.0000 C   0  0  0  0  0  0  0  0  0  0  0  0
    2.4502    6.1664   -0.0000 C   0  0  0  0  0  0  0  0  0  0  0  0
    5.0229    4.6962   -0.0000 C   0  0  0  0  0  0  0  0  0  0  0  0
    3.7162    6.9423   -0.0000 C   0  0  0  0  0  0  0  0  0  0  0  0
    5.0025    6.2072   -0.0000 C   0  0  0  0  0  0  0  0  0  0  0  0
    7.5957    4.6962   -0.0000 C   0  0  0  0  0  0  0  0  0  0  0  0
    6.2685    7.0035   -0.0000 C   0  0  0  0  0  0  0  0  0  0  0  0
    4.9821    7.4732   -0.0000 C   0  0  0  0  0  0  0  0  0  0  0  0
    7.5752    6.2480   -0.0000 C   0  0  0  0  0  0  0  0  0  0  0  0
    6.2480    8.2695   -0.0000 O   0  0  0  0  0  0  0  0  0  0  0  0
  1  2  1  0
  1  3  1  0
  2  4  1  0
  2  5  2  0
  3  6  1  0
  4  7  2  0
  4  8  1  0
  5  9  1  0
  5 10  1  0
  6 11  1  0
  8 12  1  0
  9 13  1  0
  9 14  1  6
 10 15  1  0
 13 16  1  0
 13 17  1  6
 16 18  1  0
 17 19  1  0
 18 20  1  0
 18 21  1  6
 20 22  1  0
 20 23  1  6
 21 24  1  0
 22 25  2  0
  9 12  1  0
 16 15  1  1
 19 20  1  0
 22 24  1  0
M  END
>  <MolRegNo>  (1) 
2057823

>  <m>  (1) 
=

>  <Value>  (1) 
36

>  <Unit>  (1) 
nM

>  <Type>  (1) 
Ki

>  <pValue>  (1) 
7.44

>  <Ligand Efficiency>  (1) 
0.41

>  <Binding Efficiency>  (1) 
20.64

>  <Surface Efficiency>  (1) 
21.8

>  <Assay Index>  (1) 
985527

>  <Assay Category>  (1) 


>  <Assay Organism>  (1) 
Homo sapiens

>  <Target ID>  (1) 
65

>  <Target Name>  (1) 
Cytochrome P450 19A1

>  <Target Organism>  (1) 
Homo sapiens

>  <Target Description>  (1) 
Target is a single protein chain

>  <Sequence Accession>  (1) 
P11511

>  <Reference>  (1) 


>  <Pubmed ID>  (1) 
26469743

>  <DOI>  (1) 
10.1016/j.ejmech.2015.09.038

$$$$
