4wnv_ligand_206
     RDKit          2D

 23 26  0  0  0  0  0  0  0  0999 V2000
    0.0000   -0.0000   -0.0000 O   0  0  0  0  0  0  0  0  0  0  0  0
    1.0680    0.6367   -0.0000 C   0  0  0  0  0  0  0  0  0  0  0  0
    2.3414   -0.1027   -0.0000 C   0  0  0  0  0  0  0  0  0  0  0  0
    1.0475    2.1566   -0.0000 C   0  0  0  0  0  0  0  0  0  0  0  0
    3.6148    0.6983   -0.0000 C   0  0  0  0  0  0  0  0  0  0  0  0
   -0.3286    2.9576   -0.0000 O   0  0  0  0  0  0  0  0  0  0  0  0
    2.3003    2.9165   -0.0000 C   0  0  0  0  0  0  0  0  0  0  0  0
    3.5943    2.2182   -0.0000 C   0  0  0  0  0  0  0  0  0  0  0  0
    4.9088   -0.0411   -0.0000 C   0  0  0  0  0  0  0  0  0  0  0  0
   -1.4172    2.3620   -0.0000 C   0  0  0  0  0  0  0  0  0  0  0  0
    4.8677    2.9781   -0.0000 C   0  0  0  0  0  0  0  0  0  0  0  0
    3.5532    3.4916   -0.0000 C   0  0  0  0  0  0  0  0  0  0  0  0
    6.1822    0.7599   -0.0000 C   0  0  0  0  0  0  0  0  0  0  0  0
    6.1411    2.2798   -0.0000 C   0  0  0  0  0  0  0  0  0  0  0  0
    4.8266    4.5185   -0.0000 C   0  0  0  0  0  0  0  0  0  0  0  0
    7.4145    3.0397   -0.0000 C   0  0  0  0  0  0  0  0  0  0  0  0
    6.1000    5.2990   -0.0000 C   0  0  0  0  0  0  0  0  0  0  0  0
    7.3939    4.5596   -0.0000 C   0  0  0  0  0  0  0  0  0  0  0  0
   10.0024    3.0397   -0.0000 C   0  0  0  0  0  0  0  0  0  0  0  0
    8.6673    5.3606   -0.0000 C   0  0  0  0  0  0  0  0  0  0  0  0
    7.3734    5.8330   -0.0000 C   0  0  0  0  0  0  0  0  0  0  0  0
    9.9818    4.6007   -0.0000 C   0  0  0  0  0  0  0  0  0  0  0  0
    8.6468    6.6340   -0.0000 O   0  0  0  0  0  0  0  0  0  0  0  0
  1  2  2  0
  2  3  1  0
  2  4  1  0
  3  5  2  0
  4  6  1  1
  4  7  1  0
  5  8  1  0
  5  9  1  0
  6 10  1  0
  8 11  1  0
  8 12  1  6
  9 13  1  0
 11 14  1  0
 11 15  1  6
 14 16  1  0
 15 17  1  0
 16 18  1  0
 16 19  1  6
 18 20  1  0
 18 21  1  6
 19 22  1  0
 20 23  2  0
  7  8  1  0
 14 13  1  1
 17 18  1  0
 20 22  1  0
M  END
>  <MolRegNo>  (1) 
2057809

>  <m>  (1) 
=

>  <Value>  (1) 
670

>  <Unit>  (1) 
nM

>  <Type>  (1) 
Ki

>  <pValue>  (1) 
6.17

>  <Ligand Efficiency>  (1) 
0.37

>  <Binding Efficiency>  (1) 
19.51

>  <Surface Efficiency>  (1) 
14.24

>  <Assay Index>  (1) 
985352

>  <Assay Category>  (1) 


>  <Assay Organism>  (1) 
Homo sapiens

>  <Target ID>  (1) 
65

>  <Target Name>  (1) 
Cytochrome P450 19A1

>  <Target Organism>  (1) 
Homo sapiens

>  <Target Description>  (1) 
Target is a single protein chain

>  <Sequence Accession>  (1) 
P11511

>  <Reference>  (1) 


>  <Pubmed ID>  (1) 
26469743

>  <DOI>  (1) 
10.1016/j.ejmech.2015.09.038

$$$$
