4wnv_ligand_117
     RDKit          2D

 32 36  0  0  0  0  0  0  0  0999 V2000
    0.0000   -0.0000   -0.0000 O   0  0  0  0  0  0  0  0  0  0  0  0
   -1.2487   -0.7928   -0.0000 N   0  0  0  0  0  0  0  0  0  0  0  0
   -1.1694   -2.2397   -0.0000 O   0  0  0  0  0  0  0  0  0  0  0  0
   -2.5766   -0.1189   -0.0000 C   0  0  0  0  0  0  0  0  0  0  0  0
   -3.8054   -0.9117   -0.0000 C   0  0  0  0  0  0  0  0  0  0  0  0
   -2.6757    1.3676   -0.0000 C   0  0  0  0  0  0  0  0  0  0  0  0
   -5.1334   -0.2378   -0.0000 C   0  0  0  0  0  0  0  0  0  0  0  0
   -3.9838    2.0216   -0.0000 C   0  0  0  0  0  0  0  0  0  0  0  0
   -5.2325    1.2487   -0.0000 C   0  0  0  0  0  0  0  0  0  0  0  0
   -6.5010    2.0018   -0.0000 C   0  0  0  0  0  0  0  0  0  0  0  0
   -6.5010    3.4883   -0.0000 C   0  0  0  0  0  0  0  0  0  0  0  0
   -7.7694    4.2415   -0.0000 C   0  0  0  0  0  0  0  0  0  0  0  0
   -9.0577    3.5478   -0.0000 C   0  0  0  0  0  0  0  0  0  0  0  0
   -7.8091    5.7082   -0.0000 C   0  0  0  0  0  0  0  0  0  0  0  0
  -10.3262    4.3009   -0.0000 C   0  0  0  0  0  0  0  0  0  0  0  0
   -9.0776    6.4811   -0.0000 C   0  0  0  0  0  0  0  0  0  0  0  0
   -6.5802    6.4613   -0.0000 C   0  0  0  0  0  0  0  0  0  0  0  0
  -11.5947    3.6072   -0.0000 C   0  0  0  0  0  0  0  0  0  0  0  0
  -10.3262    5.7874   -0.0000 C   0  0  0  0  0  0  0  0  0  0  0  0
   -9.0974    7.9676   -0.0000 C   0  0  0  0  0  0  0  0  0  0  0  0
   -6.5604    7.9280   -0.0000 C   0  0  0  0  0  0  0  0  0  0  0  0
   -4.0829    6.4415   -0.0000 C   0  0  0  0  0  0  0  0  0  0  0  0
  -12.8632    4.3406   -0.0000 C   0  0  0  0  0  0  0  0  0  0  0  0
  -11.5947    6.5406   -0.0000 C   0  0  0  0  0  0  0  0  0  0  0  0
  -10.3659    7.2739   -0.0000 C   0  0  0  0  0  0  0  0  0  0  0  0
   -7.8289    8.7010   -0.0000 C   0  0  0  0  0  0  0  0  0  0  0  0
   -5.3118    8.6613   -0.0000 C   0  0  0  0  0  0  0  0  0  0  0  0
   -6.6001    9.4145   -0.0000 C   0  0  0  0  0  0  0  0  0  0  0  0
   -4.0829    7.9082   -0.0000 C   0  0  0  0  0  0  0  0  0  0  0  0
  -14.1515    3.6271   -0.0000 O   0  0  0  0  0  0  0  0  0  0  0  0
  -12.8830    5.8271   -0.0000 C   0  0  0  0  0  0  0  0  0  0  0  0
   -5.3118   10.1478   -0.0000 O   0  0  0  0  0  0  0  0  0  0  0  0
  1  2  2  0
  2  3  1  0
  2  4  1  0
  4  5  2  0
  4  6  1  0
  5  7  1  0
  6  8  2  0
  7  9  2  0
  9 10  1  0
 10 11  1  0
 11 12  1  0
 12 13  2  0
 12 14  1  0
 13 15  1  0
 14 16  1  0
 14 17  1  0
 15 18  2  0
 15 19  1  0
 16 20  1  0
 17 21  1  0
 17 22  1  0
 18 23  1  0
 19 24  1  0
 19 25  1  0
 20 26  1  0
 21 27  1  0
 21 28  1  0
 22 29  1  0
 23 30  2  0
 23 31  1  0
 27 32  2  0
  8  9  1  0
 16 19  1  0
 21 26  1  0
 24 31  1  0
 27 29  1  0
M  CHG  2   2   1   3  -1
M  END
>  <MolRegNo>  (1) 
5374

>  <m>  (1) 
=

>  <Value>  (1) 
95

>  <Unit>  (1) 
nM

>  <Type>  (1) 
Ki

>  <pValue>  (1) 
7.02

>  <Ligand Efficiency>  (1) 
0.3

>  <Binding Efficiency>  (1) 
16.2

>  <Surface Efficiency>  (1) 
9.09

>  <Assay Index>  (1) 
50932

>  <Assay Category>  (1) 


>  <Assay Organism>  (1) 
Homo sapiens

>  <Target ID>  (1) 
65

>  <Target Name>  (1) 
Cytochrome P450 19A1

>  <Target Organism>  (1) 
Homo sapiens

>  <Target Description>  (1) 
Target is a single protein chain

>  <Sequence Accession>  (1) 
P11511

>  <Reference>  (1) 
J Med Chem 33 (1), 101-105 (1990)

>  <Pubmed ID>  (1) 
2296006

>  <DOI>  (1) 
10.1021/jm00163a017

$$$$
