4wnv_ligand_234
     RDKit          2D

 25 28  0  0  0  0  0  0  0  0999 V2000
    0.0000   -0.0000   -0.0000 O   0  0  0  0  0  0  0  0  0  0  0  0
    1.0681    0.6368   -0.0000 C   0  0  0  0  0  0  0  0  0  0  0  0
    2.3416   -0.1027   -0.0000 C   0  0  0  0  0  0  0  0  0  0  0  0
    1.0476    2.1567   -0.0000 C   0  0  0  0  0  0  0  0  0  0  0  0
    3.6151    0.6984   -0.0000 C   0  0  0  0  0  0  0  0  0  0  0  0
    2.3005    2.9167   -0.0000 C   0  0  0  0  0  0  0  0  0  0  0  0
    4.9091   -0.0411   -0.0000 C   0  0  0  0  0  0  0  0  0  0  0  0
    3.5946    2.2184   -0.0000 C   0  0  0  0  0  0  0  0  0  0  0  0
    6.1826    0.7600   -0.0000 C   0  0  0  0  0  0  0  0  0  0  0  0
    4.9091   -1.5816   -0.0000 C   0  0  0  0  0  0  0  0  0  0  0  0
    4.8681    2.9784   -0.0000 C   0  0  0  0  0  0  0  0  0  0  0  0
    3.5535    3.4919   -0.0000 C   0  0  0  0  0  0  0  0  0  0  0  0
    6.1416    2.2800   -0.0000 C   0  0  0  0  0  0  0  0  0  0  0  0
    6.2443   -2.3211   -0.0000 C   0  0  0  0  0  0  0  0  0  0  0  0
    4.8270    4.5189   -0.0000 C   0  0  0  0  0  0  0  0  0  0  0  0
    7.4151    3.0400   -0.0000 C   0  0  0  0  0  0  0  0  0  0  0  0
    6.2443   -3.8616   -0.0000 C   0  0  0  0  0  0  0  0  0  0  0  0
    6.1005    5.2994   -0.0000 C   0  0  0  0  0  0  0  0  0  0  0  0
    7.3945    4.5600   -0.0000 C   0  0  0  0  0  0  0  0  0  0  0  0
   10.0032    3.0400   -0.0000 C   0  0  0  0  0  0  0  0  0  0  0  0
    7.3124   -4.4573   -0.0000 C   0  0  0  0  0  0  0  0  0  0  0  0
    8.6680    5.3610   -0.0000 C   0  0  0  0  0  0  0  0  0  0  0  0
    7.3740    5.8335   -0.0000 C   0  0  0  0  0  0  0  0  0  0  0  0
    9.9826    4.6010   -0.0000 C   0  0  0  0  0  0  0  0  0  0  0  0
    8.6475    6.6345   -0.0000 O   0  0  0  0  0  0  0  0  0  0  0  0
  1  2  2  0
  2  3  1  0
  2  4  1  0
  3  5  2  0
  4  6  1  0
  5  7  1  0
  5  8  1  0
  7  9  2  0
  7 10  1  0
  8 11  1  0
  8 12  1  6
 13  9  1  1
 10 14  1  0
 11 15  1  6
 13 16  1  0
 14 17  1  0
 15 18  1  0
 16 19  1  0
 16 20  1  6
 17 21  1  0
 19 22  1  0
 19 23  1  6
 20 24  1  0
 22 25  2  0
  6  8  1  0
 11 13  1  0
 18 19  1  0
 22 24  1  0
M  END
>  <MolRegNo>  (1) 
2057930

>  <m>  (1) 
=

>  <Value>  (1) 
17

>  <Unit>  (1) 
nM

>  <Type>  (1) 
Ki

>  <pValue>  (1) 
7.77

>  <Ligand Efficiency>  (1) 
0.42

>  <Binding Efficiency>  (1) 
22.82

>  <Surface Efficiency>  (1) 
22.76

>  <Assay Index>  (1) 
985353

>  <Assay Category>  (1) 


>  <Assay Organism>  (1) 
Homo sapiens

>  <Target ID>  (1) 
65

>  <Target Name>  (1) 
Cytochrome P450 19A1

>  <Target Organism>  (1) 
Homo sapiens

>  <Target Description>  (1) 
Target is a single protein chain

>  <Sequence Accession>  (1) 
P11511

>  <Reference>  (1) 


>  <Pubmed ID>  (1) 
26469743

>  <DOI>  (1) 
10.1016/j.ejmech.2015.09.038

$$$$
