4wnv_ligand_183
     RDKit          2D

 25 27  0  0  0  0  0  0  0  0999 V2000
    0.0000   -0.0000   -0.0000 Br  0  0  0  0  0  0  0  0  0  0  0  0
    1.2867    0.7625   -0.0000 C   0  0  0  0  0  0  0  0  0  0  0  0
    2.5734    0.0238   -0.0000 C   0  0  0  0  0  0  0  0  0  0  0  0
    1.2748    2.2875   -0.0000 C   0  0  0  0  0  0  0  0  0  0  0  0
    3.8720    0.7863   -0.0000 C   0  0  0  0  0  0  0  0  0  0  0  0
    2.5615    3.0499   -0.0000 C   0  0  0  0  0  0  0  0  0  0  0  0
    3.8601    2.3113   -0.0000 C   0  0  0  0  0  0  0  0  0  0  0  0
    5.1468    3.0738   -0.0000 C   0  0  0  0  0  0  0  0  0  0  0  0
    5.1349    4.5868   -0.0000 C   0  0  0  0  0  0  0  0  0  0  0  0
    6.4335    2.3351   -0.0000 C   0  0  0  0  0  0  0  0  0  0  0  0
    3.8243    5.3493   -0.0000 O   0  0  0  0  0  0  0  0  0  0  0  0
    6.4216    5.3493   -0.0000 C   0  0  0  0  0  0  0  0  0  0  0  0
    6.4216    0.8459   -0.0000 N   0  0  0  0  0  0  0  0  0  0  0  0
    3.8124    6.8624   -0.0000 C   0  0  0  0  0  0  0  0  0  0  0  0
    7.7083    4.6107   -0.0000 C   0  0  0  0  0  0  0  0  0  0  0  0
    6.3977    6.8505   -0.0000 C   0  0  0  0  0  0  0  0  0  0  0  0
    7.6368   -0.0119   -0.0000 N   0  0  0  0  0  0  0  0  0  0  0  0
    5.2063   -0.0238   -0.0000 C   0  0  0  0  0  0  0  0  0  0  0  0
    5.0991    7.6249   -0.0000 O   0  0  0  0  0  0  0  0  0  0  0  0
    2.5019    7.6249   -0.0000 C   0  0  0  0  0  0  0  0  0  0  0  0
    8.9949    5.3731   -0.0000 C   0  0  0  0  0  0  0  0  0  0  0  0
    7.6725    7.6249   -0.0000 C   0  0  0  0  0  0  0  0  0  0  0  0
    7.1602   -1.4297   -0.0000 N   0  0  0  0  0  0  0  0  0  0  0  0
    5.6591   -1.4416   -0.0000 C   0  0  0  0  0  0  0  0  0  0  0  0
    8.9830    6.8862   -0.0000 C   0  0  0  0  0  0  0  0  0  0  0  0
  1  2  1  0
  2  3  2  0
  2  4  1  0
  3  5  1  0
  4  6  2  0
  5  7  2  0
  7  8  1  0
  8  9  1  0
  8 10  1  6
  9 11  1  6
  9 12  1  0
 10 13  1  0
 11 14  1  0
 12 15  2  0
 12 16  1  0
 13 17  1  0
 13 18  1  0
 14 19  2  0
 14 20  1  0
 15 21  1  0
 16 22  2  0
 17 23  2  0
 18 24  2  0
 21 25  2  0
  6  7  1  0
 22 25  1  0
 23 24  1  0
M  END
>  <MolRegNo>  (1) 
1589888

>  <m>  (1) 
=

>  <Value>  (1) 
237

>  <Unit>  (1) 
nM

>  <Type>  (1) 
Ki

>  <pValue>  (1) 
6.62

>  <Ligand Efficiency>  (1) 
0.36

>  <Binding Efficiency>  (1) 
16.55

>  <Surface Efficiency>  (1) 
11.62

>  <Assay Index>  (1) 
803886

>  <Assay Category>  (1) 


>  <Assay Organism>  (1) 
Homo sapiens

>  <Target ID>  (1) 
65

>  <Target Name>  (1) 
Cytochrome P450 19A1

>  <Target Organism>  (1) 
Homo sapiens

>  <Target Description>  (1) 
Target is a single protein chain

>  <Sequence Accession>  (1) 
P11511

>  <Reference>  (1) 
Bioorg Med Chem Lett 23 (22), 6060-6063 (2013)

>  <Pubmed ID>  (1) 
24113062

>  <DOI>  (1) 
10.1016/j.bmcl.2013.09.030

$$$$
