4wnv_ligand_264
     RDKit          2D

 23 27  0  0  0  0  0  0  0  0999 V2000
    0.0000   -0.0000   -0.0000 O   0  0  0  0  0  0  0  0  0  0  0  0
   -0.0134    1.2322   -0.0000 C   0  0  0  0  0  0  0  0  0  0  0  0
   -1.3795    2.0224   -0.0000 C   0  0  0  0  0  0  0  0  0  0  0  0
    1.2991    2.0224   -0.0000 C   0  0  0  0  0  0  0  0  0  0  0  0
   -1.3929    0.3348   -0.0000 O   0  0  0  0  0  0  0  0  0  0  0  0
   -1.3929    3.6027   -0.0000 C   0  0  0  0  0  0  0  0  0  0  0  0
   -2.7054    1.2590   -0.0000 C   0  0  0  0  0  0  0  0  0  0  0  0
    1.2857    3.6027   -0.0000 C   0  0  0  0  0  0  0  0  0  0  0  0
   -0.0938    4.3795   -0.0000 C   0  0  0  0  0  0  0  0  0  0  0  0
   -2.7724    4.3795   -0.0000 C   0  0  0  0  0  0  0  0  0  0  0  0
   -1.4197    4.6340   -0.0000 C   0  0  0  0  0  0  0  0  0  0  0  0
   -4.0983    2.0491   -0.0000 C   0  0  0  0  0  0  0  0  0  0  0  0
    2.6117    4.4063   -0.0000 C   0  0  0  0  0  0  0  0  0  0  0  0
   -0.1071    6.0001   -0.0000 C   0  0  0  0  0  0  0  0  0  0  0  0
   -4.1117    3.6295   -0.0000 C   0  0  0  0  0  0  0  0  0  0  0  0
   -5.1563    1.4465   -0.0000 O   0  0  0  0  0  0  0  0  0  0  0  0
    2.5983    6.0403   -0.0000 C   0  0  0  0  0  0  0  0  0  0  0  0
    4.0715    3.9510   -0.0000 C   0  0  0  0  0  0  0  0  0  0  0  0
    1.2054    6.7903   -0.0000 C   0  0  0  0  0  0  0  0  0  0  0  0
    4.0179    6.4957   -0.0000 C   0  0  0  0  0  0  0  0  0  0  0  0
    2.7054    7.2591   -0.0000 C   0  0  0  0  0  0  0  0  0  0  0  0
    4.9688    5.1831   -0.0000 C   0  0  0  0  0  0  0  0  0  0  0  0
    4.3795    7.6609   -0.0000 O   0  0  0  0  0  0  0  0  0  0  0  0
  1  2  2  0
  2  3  1  0
  2  4  1  0
  3  5  1  6
  3  6  1  0
  3  7  1  0
  8  4  1  1
  6  9  1  0
  6 10  1  0
  6 11  1  6
  7 12  1  0
  8 13  1  0
  9 14  1  6
 10 15  1  0
 12 16  2  0
 13 17  1  0
 13 18  1  6
 14 19  1  0
 17 20  1  0
 17 21  1  6
 18 22  1  0
 20 23  2  0
  7  5  1  6
  8  9  1  0
 12 15  1  0
 17 19  1  0
 20 22  1  0
M  END
>  <MolRegNo>  (1) 
2058238

>  <m>  (1) 
=

>  <Value>  (1) 
5000

>  <Unit>  (1) 
nM

>  <Type>  (1) 
Ki

>  <pValue>  (1) 
5.3

>  <Ligand Efficiency>  (1) 
0.31

>  <Binding Efficiency>  (1) 
16.75

>  <Surface Efficiency>  (1) 
8.32

>  <Assay Index>  (1) 
985353

>  <Assay Category>  (1) 


>  <Assay Organism>  (1) 
Homo sapiens

>  <Target ID>  (1) 
65

>  <Target Name>  (1) 
Cytochrome P450 19A1

>  <Target Organism>  (1) 
Homo sapiens

>  <Target Description>  (1) 
Target is a single protein chain

>  <Sequence Accession>  (1) 
P11511

>  <Reference>  (1) 


>  <Pubmed ID>  (1) 
26469743

>  <DOI>  (1) 
10.1016/j.ejmech.2015.09.038

$$$$
