4wnv_ligand_322
     RDKit          2D

 24 27  0  0  0  0  0  0  0  0999 V2000
    0.0000   -0.0000   -0.0000 O   0  0  0  0  0  0  0  0  0  0  0  0
    1.0677    0.6365   -0.0000 C   0  0  0  0  0  0  0  0  0  0  0  0
    2.3407   -0.1027   -0.0000 C   0  0  0  0  0  0  0  0  0  0  0  0
    1.0472    2.1559   -0.0000 C   0  0  0  0  0  0  0  0  0  0  0  0
    3.6137    0.6981   -0.0000 C   0  0  0  0  0  0  0  0  0  0  0  0
    2.2996    2.9156   -0.0000 C   0  0  0  0  0  0  0  0  0  0  0  0
    3.5932    2.2175   -0.0000 C   0  0  0  0  0  0  0  0  0  0  0  0
    4.9073   -0.0411   -0.0000 C   0  0  0  0  0  0  0  0  0  0  0  0
    4.8662    2.9772   -0.0000 C   0  0  0  0  0  0  0  0  0  0  0  0
    3.5521    3.4905   -0.0000 C   0  0  0  0  0  0  0  0  0  0  0  0
    6.1803    0.7597   -0.0000 C   0  0  0  0  0  0  0  0  0  0  0  0
    4.9073   -1.5810   -0.0000 C   0  0  0  0  0  0  0  0  0  0  0  0
    6.1392    2.2791   -0.0000 C   0  0  0  0  0  0  0  0  0  0  0  0
    4.8252    4.5172   -0.0000 C   0  0  0  0  0  0  0  0  0  0  0  0
    3.5521   -2.3407   -0.0000 C   0  0  0  0  0  0  0  0  0  0  0  0
    7.4123    3.0388   -0.0000 C   0  0  0  0  0  0  0  0  0  0  0  0
    6.0982    5.2974   -0.0000 C   0  0  0  0  0  0  0  0  0  0  0  0
    2.4639   -2.9567   -0.0000 C   0  0  0  0  0  0  0  0  0  0  0  0
    7.3917    4.5582   -0.0000 C   0  0  0  0  0  0  0  0  0  0  0  0
    9.9994    3.0388   -0.0000 C   0  0  0  0  0  0  0  0  0  0  0  0
    8.6647    5.3590   -0.0000 C   0  0  0  0  0  0  0  0  0  0  0  0
    7.3712    5.8312   -0.0000 C   0  0  0  0  0  0  0  0  0  0  0  0
    9.9788    4.5993   -0.0000 C   0  0  0  0  0  0  0  0  0  0  0  0
    8.6442    6.6320   -0.0000 O   0  0  0  0  0  0  0  0  0  0  0  0
  1  2  2  0
  2  3  1  0
  2  4  1  0
  3  5  2  0
  4  6  1  0
  5  7  1  0
  5  8  1  0
  7  9  1  0
  7 10  1  6
  8 11  1  0
  8 12  1  6
  9 13  1  0
  9 14  1  6
 12 15  1  0
 13 16  1  0
 14 17  1  0
 15 18  3  0
 16 19  1  0
 16 20  1  6
 19 21  1  0
 19 22  1  6
 20 23  1  0
 21 24  2  0
  6  7  1  0
 13 11  1  1
 17 19  1  0
 21 23  1  0
M  END
>  <MolRegNo>  (1) 
2057968

>  <m>  (1) 
=

>  <Value>  (1) 
10

>  <Unit>  (1) 
nM

>  <Type>  (1) 
Ki

>  <pValue>  (1) 
8

>  <Ligand Efficiency>  (1) 
0.46

>  <Binding Efficiency>  (1) 
24.66

>  <Surface Efficiency>  (1) 
23.43

>  <Assay Index>  (1) 
985528

>  <Assay Category>  (1) 


>  <Assay Organism>  (1) 
Homo sapiens

>  <Target ID>  (1) 
65

>  <Target Name>  (1) 
Cytochrome P450 19A1

>  <Target Organism>  (1) 
Homo sapiens

>  <Target Description>  (1) 
Target is a single protein chain

>  <Sequence Accession>  (1) 
P11511

>  <Reference>  (1) 


>  <Pubmed ID>  (1) 
26469743

>  <DOI>  (1) 
10.1016/j.ejmech.2015.09.038

$$$$
