4wnv_ligand_86
     RDKit          2D

 25 28  0  0  1  0  0  0  0  0999 V2000
    0.0000   -0.0000   -0.0000 O   0  0  0  0  0  0  0  0  0  0  0  0
   -0.4852   -1.3966   -0.0000 C   0  0  0  0  0  0  0  0  0  0  0  0
   -1.9291   -1.8345   -0.0000 C   0  0  0  0  0  0  0  0  0  0  0  0
    0.3669   -2.6156   -0.0000 C   0  0  0  0  0  0  0  0  0  0  0  0
   -1.9647   -3.3139   -0.0000 C   0  0  0  0  0  0  0  0  0  0  0  0
   -3.2429   -1.0652   -0.0000 C   0  0  0  0  0  0  0  0  0  0  0  0
   -1.9528   -0.3314   -0.0000 C   0  0  0  0  0  0  0  0  0  0  0  0
   -0.5326   -3.8109   -0.0000 C   0  0  0  0  0  0  0  0  0  0  0  0
   -3.2665   -4.0595   -0.0000 C   0  0  0  0  0  0  0  0  0  0  0  0
   -4.5566   -1.7990   -0.0000 C   0  0  0  0  0  0  0  0  0  0  0  0
   -4.5802   -3.2902   -0.0000 C   0  0  0  0  0  0  0  0  0  0  0  0
   -3.2784   -5.5389   -0.0000 C   0  0  0  0  0  0  0  0  0  0  0  0
   -5.8821   -4.0477   -0.0000 C   0  0  0  0  0  0  0  0  0  0  0  0
   -4.5802   -6.2727   -0.0000 C   0  0  0  0  0  0  0  0  0  0  0  0
   -5.8940   -5.5389   -0.0000 C   0  0  0  0  0  0  0  0  0  0  0  0
   -7.1840   -3.2902   -0.0000 C   0  0  0  0  0  0  0  0  0  0  0  0
   -5.9058   -2.5446   -0.0000 C   0  0  0  0  0  0  0  0  0  0  0  0
   -4.5802   -7.7521   -0.0000 C   0  0  0  0  0  0  0  0  0  0  0  0
   -7.1958   -6.2727   -0.0000 C   0  0  0  0  0  0  0  0  0  0  0  0
   -8.4977   -4.0240   -0.0000 C   0  0  0  0  0  0  0  0  0  0  0  0
   -5.8821   -8.4977   -0.0000 C   0  0  0  0  0  0  0  0  0  0  0  0
   -8.5095   -5.5034   -0.0000 C   0  0  0  0  0  0  0  0  0  0  0  0
   -7.1840   -7.7402   -0.0000 C   0  0  0  0  0  0  0  0  0  0  0  0
   -8.4859   -8.4859   -0.0000 C   0  0  0  0  0  0  0  0  0  0  0  0
   -9.7996   -7.7284   -0.0000 C   0  0  0  0  0  0  0  0  0  0  0  0
  1  2  1  0
  2  3  1  0
  2  4  1  0
  3  5  1  0
  3  6  1  0
  3  7  1  0
  4  8  1  0
  5  9  1  0
  6 10  1  0
  9 11  1  0
  9 12  1  0
 11 13  1  0
 12 14  1  0
 13 15  1  0
 13 16  1  0
 13 17  1  0
 14 18  1  6
 15 19  2  0
 16 20  1  0
 18 21  1  0
 19 22  1  0
 21 23  1  0
 23 24  1  0
 24 25  1  0
  5  8  1  0
 10 11  1  0
 14 15  1  0
 20 22  1  0
M  END
>  <MolRegNo>  (1) 
115173

>  <m>  (1) 
=

>  <Value>  (1) 
44

>  <Unit>  (1) 
nM

>  <Type>  (1) 
Ki

>  <pValue>  (1) 
7.36

>  <Ligand Efficiency>  (1) 
0.4

>  <Binding Efficiency>  (1) 
21.35

>  <Surface Efficiency>  (1) 
36.36

>  <Assay Index>  (1) 
51103

>  <Assay Category>  (1) 


>  <Assay Organism>  (1) 


>  <Target ID>  (1) 
65

>  <Target Name>  (1) 
Cytochrome P450 19A1

>  <Target Organism>  (1) 
Homo sapiens

>  <Target Description>  (1) 
Target is a single protein chain

>  <Sequence Accession>  (1) 
P11511

>  <Reference>  (1) 
J Med Chem 39 (11), 2245-2252 (1996)

>  <Pubmed ID>  (1) 
8667367

>  <DOI>  (1) 
10.1021/jm960047o

$$$$
