4wnv_ligand_4
     RDKit          2D

 35 38  0  0  0  0  0  0  0  0999 V2000
    0.0000   -0.0000   -0.0000 F   0  0  0  0  0  0  0  0  0  0  0  0
   -0.0120   -1.4973   -0.0000 C   0  0  0  0  0  0  0  0  0  0  0  0
   -1.3296   -2.2400   -0.0000 C   0  0  0  0  0  0  0  0  0  0  0  0
    1.2937   -2.2400   -0.0000 C   0  0  0  0  0  0  0  0  0  0  0  0
   -1.3416   -3.7373   -0.0000 C   0  0  0  0  0  0  0  0  0  0  0  0
    1.2817   -3.7373   -0.0000 C   0  0  0  0  0  0  0  0  0  0  0  0
   -0.0479   -4.4800   -0.0000 C   0  0  0  0  0  0  0  0  0  0  0  0
   -0.0599   -5.9773   -0.0000 C   0  0  0  0  0  0  0  0  0  0  0  0
   -1.1020   -6.5403   -0.0000 O   0  0  0  0  0  0  0  0  0  0  0  0
    1.2458   -6.7200   -0.0000 N   0  0  0  0  0  0  0  0  0  0  0  0
    1.2338   -8.2293   -0.0000 C   0  0  0  0  0  0  0  0  0  0  0  0
   -0.0839   -8.9720   -0.0000 C   0  0  0  0  0  0  0  0  0  0  0  0
   -0.0958  -10.4693   -0.0000 N   0  0  0  0  0  0  0  0  0  0  0  0
   -1.5572   -8.5527   -0.0000 C   0  0  0  0  0  0  0  0  0  0  0  0
   -1.4135  -11.2120   -0.0000 C   0  0  0  0  0  0  0  0  0  0  0  0
    1.1979  -11.2120   -0.0000 C   0  0  0  0  0  0  0  0  0  0  0  0
   -1.9525   -7.0674   -0.0000 C   0  0  0  0  0  0  0  0  0  0  0  0
   -2.6473   -9.6188   -0.0000 C   0  0  0  0  0  0  0  0  0  0  0  0
   -1.4255  -12.7093   -0.0000 C   0  0  0  0  0  0  0  0  0  0  0  0
    1.1859  -12.7093   -0.0000 C   0  0  0  0  0  0  0  0  0  0  0  0
   -3.4379   -6.6481   -0.0000 C   0  0  0  0  0  0  0  0  0  0  0  0
   -4.1207   -9.2236   -0.0000 C   0  0  0  0  0  0  0  0  0  0  0  0
   -0.1318  -13.4520   -0.0000 N   0  0  0  0  0  0  0  0  0  0  0  0
   -4.5279   -7.7142   -0.0000 C   0  0  0  0  0  0  0  0  0  0  0  0
   -0.1437  -14.9493   -0.0000 C   0  0  0  0  0  0  0  0  0  0  0  0
    1.1499  -15.6920   -0.0000 C   0  0  0  0  0  0  0  0  0  0  0  0
    2.4436  -14.9254   -0.0000 O   0  0  0  0  0  0  0  0  0  0  0  0
    1.1380  -17.2013   -0.0000 C   0  0  0  0  0  0  0  0  0  0  0  0
    2.4317  -17.9320   -0.0000 O   0  0  0  0  0  0  0  0  0  0  0  0
    2.4197  -19.4413   -0.0000 C   0  0  0  0  0  0  0  0  0  0  0  0
    1.0901  -20.1840   -0.0000 C   0  0  0  0  0  0  0  0  0  0  0  0
    3.7134  -20.1840   -0.0000 C   0  0  0  0  0  0  0  0  0  0  0  0
    1.0781  -21.6813   -0.0000 C   0  0  0  0  0  0  0  0  0  0  0  0
    3.7014  -21.6813   -0.0000 C   0  0  0  0  0  0  0  0  0  0  0  0
    2.3837  -22.4240   -0.0000 C   0  0  0  0  0  0  0  0  0  0  0  0
  1  2  1  0
  2  3  2  0
  2  4  1  0
  3  5  1  0
  4  6  2  0
  5  7  2  0
  7  8  1  0
  8  9  2  0
  8 10  1  0
 10 11  1  0
 11 12  1  0
 12 13  1  0
 12 14  1  0
 13 15  1  0
 13 16  1  0
 14 17  2  0
 14 18  1  0
 15 19  1  0
 16 20  1  0
 17 21  1  0
 18 22  2  0
 19 23  1  0
 21 24  2  0
 23 25  1  0
 25 26  1  0
 26 27  1  0
 26 28  1  0
 28 29  1  0
 29 30  1  0
 30 31  2  0
 30 32  1  0
 31 33  1  0
 32 34  2  0
 33 35  2  0
  6  7  1  0
 20 23  1  0
 22 24  1  0
 34 35  1  0
M  END
>  <MolRegNo>  (1) 
97375

>  <m>  (1) 
=

>  <Value>  (1) 
7000

>  <Unit>  (1) 
nM

>  <Type>  (1) 
Ki

>  <pValue>  (1) 
5.16

>  <Ligand Efficiency>  (1) 
0

>  <Binding Efficiency>  (1) 
0

>  <Surface Efficiency>  (1) 
0

>  <Assay Index>  (1) 
51650

>  <Assay Category>  (1) 


>  <Assay Organism>  (1) 


>  <Target ID>  (1) 
11365

>  <Target Name>  (1) 
Cytochrome P450 2D6

>  <Target Organism>  (1) 
Homo sapiens

>  <Target Description>  (1) 
Target is a single protein chain

>  <Sequence Accession>  (1) 
P10635

>  <Reference>  (1) 
Bioorg Med Chem Lett 14 (9), 2025-2030 (2004)

>  <Pubmed ID>  (1) 
15080972

>  <DOI>  (1) 
10.1016/j.bmcl.2004.02.078

$$$$
