4wnv_ligand_292
     RDKit          2D

 30 34  0  0  0  0  0  0  0  0999 V2000
    0.0000   -0.0000   -0.0000 O   0  0  0  0  0  0  0  0  0  0  0  0
    1.0564    0.6298   -0.0000 C   0  0  0  0  0  0  0  0  0  0  0  0
    2.3159   -0.1016   -0.0000 C   0  0  0  0  0  0  0  0  0  0  0  0
    1.0361    2.1331   -0.0000 C   0  0  0  0  0  0  0  0  0  0  0  0
    3.5755    0.6907   -0.0000 C   0  0  0  0  0  0  0  0  0  0  0  0
    2.2753    2.8848   -0.0000 C   0  0  0  0  0  0  0  0  0  0  0  0
    3.5552    2.1940   -0.0000 C   0  0  0  0  0  0  0  0  0  0  0  0
    4.8553   -0.0406   -0.0000 C   0  0  0  0  0  0  0  0  0  0  0  0
    4.8147    2.9457   -0.0000 C   0  0  0  0  0  0  0  0  0  0  0  0
    3.5145    3.4536   -0.0000 C   0  0  0  0  0  0  0  0  0  0  0  0
    6.1149    0.7517   -0.0000 C   0  0  0  0  0  0  0  0  0  0  0  0
    6.0742    2.2550   -0.0000 C   0  0  0  0  0  0  0  0  0  0  0  0
    4.7741    4.4693   -0.0000 C   0  0  0  0  0  0  0  0  0  0  0  0
    7.4353    0.0203   -0.0000 C   0  0  0  0  0  0  0  0  0  0  0  0
    7.3338    3.0066   -0.0000 C   0  0  0  0  0  0  0  0  0  0  0  0
    6.0336    5.2413   -0.0000 C   0  0  0  0  0  0  0  0  0  0  0  0
    7.4353   -1.5033   -0.0000 C   0  0  0  0  0  0  0  0  0  0  0  0
    7.3135    4.5100   -0.0000 C   0  0  0  0  0  0  0  0  0  0  0  0
    9.8935    3.0066   -0.0000 C   0  0  0  0  0  0  0  0  0  0  0  0
    8.7558   -2.2347   -0.0000 C   0  0  0  0  0  0  0  0  0  0  0  0
    8.5730    5.3023   -0.0000 C   0  0  0  0  0  0  0  0  0  0  0  0
    7.2931    5.7695   -0.0000 C   0  0  0  0  0  0  0  0  0  0  0  0
    9.8732    4.5506   -0.0000 C   0  0  0  0  0  0  0  0  0  0  0  0
    8.7558   -3.7583   -0.0000 C   0  0  0  0  0  0  0  0  0  0  0  0
    8.5527    6.5618   -0.0000 O   0  0  0  0  0  0  0  0  0  0  0  0
    7.4150   -4.5303   -0.0000 C   0  0  0  0  0  0  0  0  0  0  0  0
   10.0763   -4.4896   -0.0000 C   0  0  0  0  0  0  0  0  0  0  0  0
    7.4150   -6.0539   -0.0000 C   0  0  0  0  0  0  0  0  0  0  0  0
   10.0763   -6.0133   -0.0000 C   0  0  0  0  0  0  0  0  0  0  0  0
    8.7355   -6.7853   -0.0000 C   0  0  0  0  0  0  0  0  0  0  0  0
  1  2  2  0
  2  3  1  0
  2  4  1  0
  3  5  2  0
  4  6  2  0
  5  7  1  0
  5  8  1  0
  7  9  1  0
  7 10  1  1
  8 11  1  0
 12  9  1  0
  9 13  1  1
 11 14  1  6
 12 15  1  0
 13 16  1  0
 14 17  1  0
 15 18  1  0
 15 19  1  1
 17 20  1  0
 18 21  1  0
 18 22  1  1
 19 23  1  0
 20 24  1  0
 21 25  2  0
 24 26  2  0
 24 27  1  0
 26 28  1  0
 27 29  2  0
 28 30  2  0
  6  7  1  0
 12 11  1  6
 16 18  1  0
 21 23  1  0
 29 30  1  0
M  END
>  <MolRegNo>  (1) 
2057980

>  <m>  (1) 
=

>  <Value>  (1) 
7

>  <Unit>  (1) 
nM

>  <Type>  (1) 
Ki

>  <pValue>  (1) 
8.15

>  <Ligand Efficiency>  (1) 
0.37

>  <Binding Efficiency>  (1) 
20.26

>  <Surface Efficiency>  (1) 
23.89

>  <Assay Index>  (1) 
985527

>  <Assay Category>  (1) 


>  <Assay Organism>  (1) 
Homo sapiens

>  <Target ID>  (1) 
65

>  <Target Name>  (1) 
Cytochrome P450 19A1

>  <Target Organism>  (1) 
Homo sapiens

>  <Target Description>  (1) 
Target is a single protein chain

>  <Sequence Accession>  (1) 
P11511

>  <Reference>  (1) 


>  <Pubmed ID>  (1) 
26469743

>  <DOI>  (1) 
10.1016/j.ejmech.2015.09.038

$$$$
